 400x600                                                                 
                         ls-dyna smp.123264 d           date 01/12/2018

{BEGIN LEGEND}
 Entity #        Title
        0     bottom                                                                
        0     top                                                                   
        0     middle                                                                
{END LEGEND}

 single point constraint forces

 output at time =   0.00000E+00
 node=     1 local x,y,z forces =    0.0000E+00    0.0000E+00    0.0000E+00  setid=       0
 node=     2 local x,y,z forces =    0.0000E+00    0.0000E+00    0.0000E+00  setid=       0
 node=     3 local x,y,z forces =    0.0000E+00    0.0000E+00    0.0000E+00  setid=       0
 node=     4 local x,y,z forces =    0.0000E+00    0.0000E+00    0.0000E+00  setid=       0
 node=     5 local x,y,z forces =    0.0000E+00    0.0000E+00    0.0000E+00  setid=       0
 node=     6 local x,y,z forces =    0.0000E+00    0.0000E+00    0.0000E+00  setid=       0
 node=     7 local x,y,z forces =    0.0000E+00    0.0000E+00    0.0000E+00  setid=       0
 node=     8 local x,y,z forces =    0.0000E+00    0.0000E+00    0.0000E+00  setid=       0
 node=     9 local x,y,z forces =    0.0000E+00    0.0000E+00    0.0000E+00  setid=       0
 node=    10 local x,y,z forces =    0.0000E+00    0.0000E+00    0.0000E+00  setid=       0
 node=    11 local x,y,z forces =    0.0000E+00    0.0000E+00    0.0000E+00  setid=       0
 node=    12 local x,y,z forces =    0.0000E+00    0.0000E+00    0.0000E+00  setid=       0
 node=    13 local x,y,z forces =    0.0000E+00    0.0000E+00    0.0000E+00  setid=       0
 node=    14 local x,y,z forces =    0.0000E+00    0.0000E+00    0.0000E+00  setid=       0
 node=    15 local x,y,z forces =    0.0000E+00    0.0000E+00    0.0000E+00  setid=       0
 node=    16 local x,y,z forces =    0.0000E+00    0.0000E+00    0.0000E+00  setid=       0
 node=    17 local x,y,z forces =    0.0000E+00    0.0000E+00    0.0000E+00  setid=       0
 node=    18 local x,y,z forces =    0.0000E+00    0.0000E+00    0.0000E+00  setid=       0
 node=    19 local x,y,z forces =    0.0000E+00    0.0000E+00    0.0000E+00  setid=       0
 node=    20 local x,y,z forces =    0.0000E+00    0.0000E+00    0.0000E+00  setid=       0
 node=    21 local x,y,z forces =    0.0000E+00    0.0000E+00    0.0000E+00  setid=       0
 node=    22 local x,y,z forces =    0.0000E+00    0.0000E+00    0.0000E+00  setid=       0
 node=    23 local x,y,z forces =    0.0000E+00    0.0000E+00    0.0000E+00  setid=       0
 node=    24 local x,y,z forces =    0.0000E+00    0.0000E+00    0.0000E+00  setid=       0
 node=    25 local x,y,z forces =    0.0000E+00    0.0000E+00    0.0000E+00  setid=       0
 node=    26 local x,y,z forces =    0.0000E+00    0.0000E+00    0.0000E+00  setid=       0
 node=    27 local x,y,z forces =    0.0000E+00    0.0000E+00    0.0000E+00  setid=       0
 node=    28 local x,y,z forces =    0.0000E+00    0.0000E+00    0.0000E+00  setid=       0
 node=    29 local x,y,z forces =    0.0000E+00    0.0000E+00    0.0000E+00  setid=       0
 node=    30 local x,y,z forces =    0.0000E+00    0.0000E+00    0.0000E+00  setid=       0
 node=    31 local x,y,z forces =    0.0000E+00    0.0000E+00    0.0000E+00  setid=       0
 node=    32 local x,y,z forces =    0.0000E+00    0.0000E+00    0.0000E+00  setid=       0
 node=    33 local x,y,z forces =    0.0000E+00    0.0000E+00    0.0000E+00  setid=       0
 node=    34 local x,y,z forces =    0.0000E+00    0.0000E+00    0.0000E+00  setid=       0
 node=    35 local x,y,z forces =    0.0000E+00    0.0000E+00    0.0000E+00  setid=       0
 node=    36 local x,y,z forces =    0.0000E+00    0.0000E+00    0.0000E+00  setid=       0
 node=    37 local x,y,z forces =    0.0000E+00    0.0000E+00    0.0000E+00  setid=       0
 node=    38 local x,y,z forces =    0.0000E+00    0.0000E+00    0.0000E+00  setid=       0
 node=    39 local x,y,z forces =    0.0000E+00    0.0000E+00    0.0000E+00  setid=       0
 node=    40 local x,y,z forces =    0.0000E+00    0.0000E+00    0.0000E+00  setid=       0
 node=    41 local x,y,z forces =    0.0000E+00    0.0000E+00    0.0000E+00  setid=       0
 node=    42 local x,y,z forces =    0.0000E+00    0.0000E+00    0.0000E+00  setid=       0
 node=    43 local x,y,z forces =    0.0000E+00    0.0000E+00    0.0000E+00  setid=       0
 node=    44 local x,y,z forces =    0.0000E+00    0.0000E+00    0.0000E+00  setid=       0
 node=    45 local x,y,z forces =    0.0000E+00    0.0000E+00    0.0000E+00  setid=       0
 node=    46 local x,y,z forces =    0.0000E+00    0.0000E+00    0.0000E+00  setid=       0
 node=    47 local x,y,z forces =    0.0000E+00    0.0000E+00    0.0000E+00  setid=       0
 node=    48 local x,y,z forces =    0.0000E+00    0.0000E+00    0.0000E+00  setid=       0
 node=    49 local x,y,z forces =    0.0000E+00    0.0000E+00    0.0000E+00  setid=       0
 node=    50 local x,y,z forces =    0.0000E+00    0.0000E+00    0.0000E+00  setid=       0
 node=    51 local x,y,z forces =    0.0000E+00    0.0000E+00    0.0000E+00  setid=       0
 node=    52 local x,y,z forces =    0.0000E+00    0.0000E+00    0.0000E+00  setid=       0
 node=    53 local x,y,z forces =    0.0000E+00    0.0000E+00    0.0000E+00  setid=       0
 node=    54 local x,y,z forces =    0.0000E+00    0.0000E+00    0.0000E+00  setid=       0
 node=    55 local x,y,z forces =    0.0000E+00    0.0000E+00    0.0000E+00  setid=       0
 node=    56 local x,y,z forces =    0.0000E+00    0.0000E+00    0.0000E+00  setid=       0
 node=    57 local x,y,z forces =    0.0000E+00    0.0000E+00    0.0000E+00  setid=       0
 node=    58 local x,y,z forces =    0.0000E+00    0.0000E+00    0.0000E+00  setid=       0
 node=    59 local x,y,z forces =    0.0000E+00    0.0000E+00    0.0000E+00  setid=       0
 node=    60 local x,y,z forces =    0.0000E+00    0.0000E+00    0.0000E+00  setid=       0
 node=    61 local x,y,z forces =    0.0000E+00    0.0000E+00    0.0000E+00  setid=       0
 node=    62 local x,y,z forces =    0.0000E+00    0.0000E+00    0.0000E+00  setid=       0
 node=    63 local x,y,z forces =    0.0000E+00    0.0000E+00    0.0000E+00  setid=       0
 node=    64 local x,y,z forces =    0.0000E+00    0.0000E+00    0.0000E+00  setid=       0
 node=    65 local x,y,z forces =    0.0000E+00    0.0000E+00    0.0000E+00  setid=       0
 node=    66 local x,y,z forces =    0.0000E+00    0.0000E+00    0.0000E+00  setid=       0
 node=    67 local x,y,z forces =    0.0000E+00    0.0000E+00    0.0000E+00  setid=       0
 node=    68 local x,y,z forces =    0.0000E+00    0.0000E+00    0.0000E+00  setid=       0
 node=    69 local x,y,z forces =    0.0000E+00    0.0000E+00    0.0000E+00  setid=       0
 node=    70 local x,y,z forces =    0.0000E+00    0.0000E+00    0.0000E+00  setid=       0
 node=    71 local x,y,z forces =    0.0000E+00    0.0000E+00    0.0000E+00  setid=       0
 node=    72 local x,y,z forces =    0.0000E+00    0.0000E+00    0.0000E+00  setid=       0
 node=    73 local x,y,z forces =    0.0000E+00    0.0000E+00    0.0000E+00  setid=       0
 node=    74 local x,y,z forces =    0.0000E+00    0.0000E+00    0.0000E+00  setid=       0
 node=    75 local x,y,z forces =    0.0000E+00    0.0000E+00    0.0000E+00  setid=       0
 node=    76 local x,y,z forces =    0.0000E+00    0.0000E+00    0.0000E+00  setid=       0
 node=    77 local x,y,z forces =    0.0000E+00    0.0000E+00    0.0000E+00  setid=       0
 node=    78 local x,y,z forces =    0.0000E+00    0.0000E+00    0.0000E+00  setid=       0
 node=    79 local x,y,z forces =    0.0000E+00    0.0000E+00    0.0000E+00  setid=       0
 node=    80 local x,y,z forces =    0.0000E+00    0.0000E+00    0.0000E+00  setid=       0
 node=    81 local x,y,z forces =    0.0000E+00    0.0000E+00    0.0000E+00  setid=       0
 node=    82 local x,y,z forces =    0.0000E+00    0.0000E+00    0.0000E+00  setid=       0
 node=    83 local x,y,z forces =    0.0000E+00    0.0000E+00    0.0000E+00  setid=       0
 node=    84 local x,y,z forces =    0.0000E+00    0.0000E+00    0.0000E+00  setid=       0
 node=    85 local x,y,z forces =    0.0000E+00    0.0000E+00    0.0000E+00  setid=       0
 node=    86 local x,y,z forces =    0.0000E+00    0.0000E+00    0.0000E+00  setid=       0
 node=    87 local x,y,z forces =    0.0000E+00    0.0000E+00    0.0000E+00  setid=       0
 node=    88 local x,y,z forces =    0.0000E+00    0.0000E+00    0.0000E+00  setid=       0
 node=    89 local x,y,z forces =    0.0000E+00    0.0000E+00    0.0000E+00  setid=       0
 node=    90 local x,y,z forces =    0.0000E+00    0.0000E+00    0.0000E+00  setid=       0
 node=    91 local x,y,z forces =    0.0000E+00    0.0000E+00    0.0000E+00  setid=       0
 node=    92 local x,y,z forces =    0.0000E+00    0.0000E+00    0.0000E+00  setid=       0
 node=    93 local x,y,z forces =    0.0000E+00    0.0000E+00    0.0000E+00  setid=       0
 node=    94 local x,y,z forces =    0.0000E+00    0.0000E+00    0.0000E+00  setid=       0
 node=    95 local x,y,z forces =    0.0000E+00    0.0000E+00    0.0000E+00  setid=       0
 node=    96 local x,y,z forces =    0.0000E+00    0.0000E+00    0.0000E+00  setid=       0
 node=    97 local x,y,z forces =    0.0000E+00    0.0000E+00    0.0000E+00  setid=       0
 node=    98 local x,y,z forces =    0.0000E+00    0.0000E+00    0.0000E+00  setid=       0
 node=    99 local x,y,z forces =    0.0000E+00    0.0000E+00    0.0000E+00  setid=       0
 node=   100 local x,y,z forces =    0.0000E+00    0.0000E+00    0.0000E+00  setid=       0
 node=   101 local x,y,z forces =    0.0000E+00    0.0000E+00    0.0000E+00  setid=       0
 node=   102 local x,y,z forces =    0.0000E+00    0.0000E+00    0.0000E+00  setid=       0
 node=   103 local x,y,z forces =    0.0000E+00    0.0000E+00    0.0000E+00  setid=       0
 node=   104 local x,y,z forces =    0.0000E+00    0.0000E+00    0.0000E+00  setid=       0
 node=   105 local x,y,z forces =    0.0000E+00    0.0000E+00    0.0000E+00  setid=       0
 node=   106 local x,y,z forces =    0.0000E+00    0.0000E+00    0.0000E+00  setid=       0
 node=   107 local x,y,z forces =    0.0000E+00    0.0000E+00    0.0000E+00  setid=       0
 node=   108 local x,y,z forces =    0.0000E+00    0.0000E+00    0.0000E+00  setid=       0
 node=   109 local x,y,z forces =    0.0000E+00    0.0000E+00    0.0000E+00  setid=       0
 node=   110 local x,y,z forces =    0.0000E+00    0.0000E+00    0.0000E+00  setid=       0
 node=   111 local x,y,z forces =    0.0000E+00    0.0000E+00    0.0000E+00  setid=       0
 node=   112 local x,y,z forces =    0.0000E+00    0.0000E+00    0.0000E+00  setid=       0
 node=   113 local x,y,z forces =    0.0000E+00    0.0000E+00    0.0000E+00  setid=       0
 node=   114 local x,y,z forces =    0.0000E+00    0.0000E+00    0.0000E+00  setid=       0
 node=   115 local x,y,z forces =    0.0000E+00    0.0000E+00    0.0000E+00  setid=       0
 node=   116 local x,y,z forces =    0.0000E+00    0.0000E+00    0.0000E+00  setid=       0
 node=   117 local x,y,z forces =    0.0000E+00    0.0000E+00    0.0000E+00  setid=       0
 node=  5855 local x,y,z forces =    0.0000E+00    0.0000E+00    0.0000E+00  setid=       0
 node=  5864 local x,y,z forces =    0.0000E+00    0.0000E+00    0.0000E+00  setid=       0
 node=  5873 local x,y,z forces =    0.0000E+00    0.0000E+00    0.0000E+00  setid=       0
 node=  5882 local x,y,z forces =    0.0000E+00    0.0000E+00    0.0000E+00  setid=       0
 node=  5891 local x,y,z forces =    0.0000E+00    0.0000E+00    0.0000E+00  setid=       0
 node=  5900 local x,y,z forces =    0.0000E+00    0.0000E+00    0.0000E+00  setid=       0
 node=  5909 local x,y,z forces =    0.0000E+00    0.0000E+00    0.0000E+00  setid=       0
 node=  5918 local x,y,z forces =    0.0000E+00    0.0000E+00    0.0000E+00  setid=       0
 node=  5927 local x,y,z forces =    0.0000E+00    0.0000E+00    0.0000E+00  setid=       0
 node=  5936 local x,y,z forces =    0.0000E+00    0.0000E+00    0.0000E+00  setid=       0
 node=  5945 local x,y,z forces =    0.0000E+00    0.0000E+00    0.0000E+00  setid=       0
 node=  5954 local x,y,z forces =    0.0000E+00    0.0000E+00    0.0000E+00  setid=       0
 node=  5963 local x,y,z forces =    0.0000E+00    0.0000E+00    0.0000E+00  setid=       0
             force resultants   =    0.0000E+00    0.0000E+00    0.0000E+00
 output at time =   5.00000E-04
 node=     1 local x,y,z forces =   -6.1291E+03   -6.2214E+03   -1.2811E+04  setid=       0
 node=     2 local x,y,z forces =   -1.4529E+03   -1.1813E+04   -2.1374E+04  setid=       0
 node=     3 local x,y,z forces =   -1.5473E+03   -1.1275E+04   -2.0119E+04  setid=       0
 node=     4 local x,y,z forces =   -6.3181E+02   -1.1304E+04   -2.0021E+04  setid=       0
 node=     5 local x,y,z forces =   -1.4174E+01   -1.1278E+04   -2.0279E+04  setid=       0
 node=     6 local x,y,z forces =    6.0427E+02   -1.1333E+04   -2.0072E+04  setid=       0
 node=     7 local x,y,z forces =    1.5252E+03   -1.1332E+04   -2.0219E+04  setid=       0
 node=     8 local x,y,z forces =    1.4376E+03   -1.1899E+04   -2.1526E+04  setid=       0
 node=     9 local x,y,z forces =    6.1696E+03   -6.2728E+03   -1.2906E+04  setid=       0
 node=    10 local x,y,z forces =   -1.1408E+04   -1.7734E+03   -2.1049E+04  setid=       0
 node=    11 local x,y,z forces =   -2.8821E+03   -3.5407E+03   -3.3547E+04  setid=       0
 node=    12 local x,y,z forces =   -3.0769E+03   -3.5847E+03   -3.0925E+04  setid=       0
 node=    13 local x,y,z forces =   -1.2477E+03   -3.6475E+03   -3.0660E+04  setid=       0
 node=    14 local x,y,z forces =   -2.2873E+01   -3.6661E+03   -3.1126E+04  setid=       0
 node=    15 local x,y,z forces =    1.2032E+03   -3.6569E+03   -3.0739E+04  setid=       0
 node=    16 local x,y,z forces =    3.0436E+03   -3.6030E+03   -3.1080E+04  setid=       0
 node=    17 local x,y,z forces =    2.8592E+03   -3.5695E+03   -3.3789E+04  setid=       0
 node=    18 local x,y,z forces =    1.1486E+04   -1.7916E+03   -2.1206E+04  setid=       0
 node=    19 local x,y,z forces =   -1.0632E+04   -2.1576E+03   -1.8819E+04  setid=       0
 node=    20 local x,y,z forces =   -2.9175E+03   -4.2923E+03   -2.9020E+04  setid=       0
 node=    21 local x,y,z forces =   -3.1155E+03   -4.3204E+03   -2.6330E+04  setid=       0
 node=    22 local x,y,z forces =   -1.2527E+03   -4.3827E+03   -2.6079E+04  setid=       0
 node=    23 local x,y,z forces =   -1.5999E+01   -4.4107E+03   -2.6535E+04  setid=       0
 node=    24 local x,y,z forces =    1.2215E+03   -4.3939E+03   -2.6149E+04  setid=       0
 node=    25 local x,y,z forces =    3.0957E+03   -4.3427E+03   -2.6465E+04  setid=       0
 node=    26 local x,y,z forces =    2.9037E+03   -4.3273E+03   -2.9238E+04  setid=       0
 node=    27 local x,y,z forces =    1.0711E+04   -2.1792E+03   -1.8968E+04  setid=       0
 node=    28 local x,y,z forces =   -1.0570E+04   -1.3631E+03   -1.9008E+04  setid=       0
 node=    29 local x,y,z forces =   -2.9717E+03   -2.6918E+03   -2.9332E+04  setid=       0
 node=    30 local x,y,z forces =   -3.1923E+03   -2.6715E+03   -2.6644E+04  setid=       0
 node=    31 local x,y,z forces =   -1.2876E+03   -2.6934E+03   -2.6446E+04  setid=       0
 node=    32 local x,y,z forces =   -1.2874E+01   -2.7069E+03   -2.6911E+04  setid=       0
 node=    33 local x,y,z forces =    1.2625E+03   -2.7005E+03   -2.6517E+04  setid=       0
 node=    34 local x,y,z forces =    3.1785E+03   -2.6858E+03   -2.6782E+04  setid=       0
 node=    35 local x,y,z forces =    2.9610E+03   -2.7144E+03   -2.9561E+04  setid=       0
 node=    36 local x,y,z forces =    1.0653E+04   -1.3770E+03   -1.9166E+04  setid=       0
 node=    37 local x,y,z forces =   -1.0515E+04   -9.4517E+02   -1.8796E+04  setid=       0
 node=    38 local x,y,z forces =   -3.0087E+03   -1.8648E+03   -2.8832E+04  setid=       0
 node=    39 local x,y,z forces =   -3.2454E+03   -1.8445E+03   -2.6103E+04  setid=       0
 node=    40 local x,y,z forces =   -1.3157E+03   -1.8512E+03   -2.5927E+04  setid=       0
 node=    41 local x,y,z forces =   -1.0996E+01   -1.8571E+03   -2.6399E+04  setid=       0
 node=    42 local x,y,z forces =    1.2942E+03   -1.8561E+03   -2.5998E+04  setid=       0
 node=    43 local x,y,z forces =    3.2351E+03   -1.8545E+03   -2.6241E+04  setid=       0
 node=    44 local x,y,z forces =    2.9999E+03   -1.8803E+03   -2.9063E+04  setid=       0
 node=    45 local x,y,z forces =    1.0601E+04   -9.5464E+02   -1.8959E+04  setid=       0
 node=    46 local x,y,z forces =   -1.0513E+04   -4.3939E+02   -1.8875E+04  setid=       0
 node=    47 local x,y,z forces =   -3.0301E+03   -8.6481E+02   -2.8949E+04  setid=       0
 node=    48 local x,y,z forces =   -3.2764E+03   -8.5022E+02   -2.6202E+04  setid=       0
 node=    49 local x,y,z forces =   -1.3323E+03   -8.5038E+02   -2.6034E+04  setid=       0
 node=    50 local x,y,z forces =   -1.0066E+01   -8.5205E+02   -2.6504E+04  setid=       0
 node=    51 local x,y,z forces =    1.3125E+03   -8.5270E+02   -2.6106E+04  setid=       0
 node=    52 local x,y,z forces =    3.2678E+03   -8.5491E+02   -2.6341E+04  setid=       0
 node=    53 local x,y,z forces =    3.0222E+03   -8.7209E+02   -2.9185E+04  setid=       0
 node=    54 local x,y,z forces =    1.0601E+04   -4.4381E+02   -1.9041E+04  setid=       0
 node=    55 local x,y,z forces =   -1.0507E+04   -2.7285E-11   -1.8816E+04  setid=       0
 node=    56 local x,y,z forces =   -3.0360E+03   -5.0932E-11   -2.8813E+04  setid=       0
 node=    57 local x,y,z forces =   -3.2862E+03   -3.2742E-11   -2.6053E+04  setid=       0
 node=    58 local x,y,z forces =   -1.3373E+03   -1.8190E-11   -2.5890E+04  setid=       0
 node=    59 local x,y,z forces =   -9.7643E+00    1.0914E-11   -2.6363E+04  setid=       0
 node=    60 local x,y,z forces =    1.3180E+03    1.6371E-11   -2.5962E+04  setid=       0
 node=    61 local x,y,z forces =    3.2781E+03    9.0949E-12   -2.6192E+04  setid=       0
 node=    62 local x,y,z forces =    3.0284E+03   -1.0914E-11   -2.9049E+04  setid=       0
 node=    63 local x,y,z forces =    1.0595E+04   -1.4552E-11   -1.8983E+04  setid=       0
 node=    64 local x,y,z forces =   -1.0513E+04    4.3939E+02   -1.8875E+04  setid=       0
 node=    65 local x,y,z forces =   -3.0301E+03    8.6481E+02   -2.8949E+04  setid=       0
 node=    66 local x,y,z forces =   -3.2764E+03    8.5022E+02   -2.6202E+04  setid=       0
 node=    67 local x,y,z forces =   -1.3323E+03    8.5038E+02   -2.6034E+04  setid=       0
 node=    68 local x,y,z forces =   -1.0066E+01    8.5205E+02   -2.6504E+04  setid=       0
 node=    69 local x,y,z forces =    1.3125E+03    8.5270E+02   -2.6106E+04  setid=       0
 node=    70 local x,y,z forces =    3.2678E+03    8.5491E+02   -2.6341E+04  setid=       0
 node=    71 local x,y,z forces =    3.0222E+03    8.7209E+02   -2.9185E+04  setid=       0
 node=    72 local x,y,z forces =    1.0601E+04    4.4381E+02   -1.9041E+04  setid=       0
 node=    73 local x,y,z forces =   -1.0515E+04    9.4517E+02   -1.8796E+04  setid=       0
 node=    74 local x,y,z forces =   -3.0087E+03    1.8648E+03   -2.8832E+04  setid=       0
 node=    75 local x,y,z forces =   -3.2454E+03    1.8445E+03   -2.6103E+04  setid=       0
 node=    76 local x,y,z forces =   -1.3157E+03    1.8512E+03   -2.5927E+04  setid=       0
 node=    77 local x,y,z forces =   -1.0996E+01    1.8571E+03   -2.6399E+04  setid=       0
 node=    78 local x,y,z forces =    1.2942E+03    1.8561E+03   -2.5998E+04  setid=       0
 node=    79 local x,y,z forces =    3.2351E+03    1.8545E+03   -2.6241E+04  setid=       0
 node=    80 local x,y,z forces =    2.9999E+03    1.8803E+03   -2.9063E+04  setid=       0
 node=    81 local x,y,z forces =    1.0601E+04    9.5464E+02   -1.8959E+04  setid=       0
 node=    82 local x,y,z forces =   -1.0570E+04    1.3631E+03   -1.9008E+04  setid=       0
 node=    83 local x,y,z forces =   -2.9717E+03    2.6918E+03   -2.9332E+04  setid=       0
 node=    84 local x,y,z forces =   -3.1923E+03    2.6715E+03   -2.6644E+04  setid=       0
 node=    85 local x,y,z forces =   -1.2876E+03    2.6934E+03   -2.6446E+04  setid=       0
 node=    86 local x,y,z forces =   -1.2874E+01    2.7069E+03   -2.6911E+04  setid=       0
 node=    87 local x,y,z forces =    1.2625E+03    2.7005E+03   -2.6517E+04  setid=       0
 node=    88 local x,y,z forces =    3.1785E+03    2.6858E+03   -2.6782E+04  setid=       0
 node=    89 local x,y,z forces =    2.9610E+03    2.7144E+03   -2.9561E+04  setid=       0
 node=    90 local x,y,z forces =    1.0653E+04    1.3770E+03   -1.9166E+04  setid=       0
 node=    91 local x,y,z forces =   -1.0632E+04    2.1576E+03   -1.8819E+04  setid=       0
 node=    92 local x,y,z forces =   -2.9175E+03    4.2923E+03   -2.9020E+04  setid=       0
 node=    93 local x,y,z forces =   -3.1155E+03    4.3204E+03   -2.6330E+04  setid=       0
 node=    94 local x,y,z forces =   -1.2527E+03    4.3827E+03   -2.6079E+04  setid=       0
 node=    95 local x,y,z forces =   -1.5999E+01    4.4107E+03   -2.6535E+04  setid=       0
 node=    96 local x,y,z forces =    1.2215E+03    4.3939E+03   -2.6149E+04  setid=       0
 node=    97 local x,y,z forces =    3.0957E+03    4.3427E+03   -2.6465E+04  setid=       0
 node=    98 local x,y,z forces =    2.9037E+03    4.3273E+03   -2.9238E+04  setid=       0
 node=    99 local x,y,z forces =    1.0711E+04    2.1792E+03   -1.8968E+04  setid=       0
 node=   100 local x,y,z forces =   -1.1408E+04    1.7734E+03   -2.1049E+04  setid=       0
 node=   101 local x,y,z forces =   -2.8821E+03    3.5407E+03   -3.3547E+04  setid=       0
 node=   102 local x,y,z forces =   -3.0769E+03    3.5847E+03   -3.0925E+04  setid=       0
 node=   103 local x,y,z forces =   -1.2477E+03    3.6475E+03   -3.0660E+04  setid=       0
 node=   104 local x,y,z forces =   -2.2873E+01    3.6661E+03   -3.1126E+04  setid=       0
 node=   105 local x,y,z forces =    1.2032E+03    3.6569E+03   -3.0739E+04  setid=       0
 node=   106 local x,y,z forces =    3.0436E+03    3.6030E+03   -3.1080E+04  setid=       0
 node=   107 local x,y,z forces =    2.8592E+03    3.5695E+03   -3.3789E+04  setid=       0
 node=   108 local x,y,z forces =    1.1486E+04    1.7916E+03   -2.1206E+04  setid=       0
 node=   109 local x,y,z forces =   -6.1291E+03    6.2214E+03   -1.2811E+04  setid=       0
 node=   110 local x,y,z forces =   -1.4529E+03    1.1813E+04   -2.1374E+04  setid=       0
 node=   111 local x,y,z forces =   -1.5473E+03    1.1275E+04   -2.0119E+04  setid=       0
 node=   112 local x,y,z forces =   -6.3181E+02    1.1304E+04   -2.0021E+04  setid=       0
 node=   113 local x,y,z forces =   -1.4174E+01    1.1278E+04   -2.0279E+04  setid=       0
 node=   114 local x,y,z forces =    6.0427E+02    1.1333E+04   -2.0072E+04  setid=       0
 node=   115 local x,y,z forces =    1.5252E+03    1.1332E+04   -2.0219E+04  setid=       0
 node=   116 local x,y,z forces =    1.4376E+03    1.1899E+04   -2.1526E+04  setid=       0
 node=   117 local x,y,z forces =    6.1696E+03    6.2728E+03   -1.2906E+04  setid=       0
 node=  5855 local x,y,z forces =   -9.5861E-01   -4.5628E+04    0.0000E+00  setid=       0
 node=  5864 local x,y,z forces =   -2.4000E+00   -2.8368E+04    0.0000E+00  setid=       0
 node=  5873 local x,y,z forces =   -2.8945E+00   -1.6140E+04    0.0000E+00  setid=       0
 node=  5882 local x,y,z forces =   -3.5718E+00   -1.0614E+04    0.0000E+00  setid=       0
 node=  5891 local x,y,z forces =   -4.1164E+00   -6.2837E+03    0.0000E+00  setid=       0
 node=  5900 local x,y,z forces =   -4.4641E+00   -2.9523E+03    0.0000E+00  setid=       0
 node=  5909 local x,y,z forces =   -4.5872E+00    4.0382E-10    0.0000E+00  setid=       0
 node=  5918 local x,y,z forces =   -4.4641E+00    2.9523E+03    0.0000E+00  setid=       0
 node=  5927 local x,y,z forces =   -4.1164E+00    6.2837E+03    0.0000E+00  setid=       0
 node=  5936 local x,y,z forces =   -3.5718E+00    1.0614E+04    0.0000E+00  setid=       0
 node=  5945 local x,y,z forces =   -2.8945E+00    1.6140E+04    0.0000E+00  setid=       0
 node=  5954 local x,y,z forces =   -2.4000E+00    2.8368E+04    0.0000E+00  setid=       0
 node=  5963 local x,y,z forces =   -9.5861E-01    4.5628E+04    0.0000E+00  setid=       0
             force resultants   =    2.3133E+01    4.2201E-09   -2.9161E+06
 output at time =   1.00000E-03
 node=     1 local x,y,z forces =   -1.2250E+04   -1.2432E+04   -2.5613E+04  setid=       0
 node=     2 local x,y,z forces =   -2.9084E+03   -2.3608E+04   -4.2732E+04  setid=       0
 node=     3 local x,y,z forces =   -3.0997E+03   -2.2537E+04   -4.0230E+04  setid=       0
 node=     4 local x,y,z forces =   -1.2696E+03   -2.2603E+04   -4.0045E+04  setid=       0
 node=     5 local x,y,z forces =   -3.4569E+01   -2.2555E+04   -4.0572E+04  setid=       0
 node=     6 local x,y,z forces =    1.2026E+03   -2.2672E+04   -4.0169E+04  setid=       0
 node=     7 local x,y,z forces =    3.0461E+03   -2.2676E+04   -4.0473E+04  setid=       0
 node=     8 local x,y,z forces =    2.8716E+03   -2.3816E+04   -4.3100E+04  setid=       0
 node=     9 local x,y,z forces =    1.2348E+04   -1.2557E+04   -2.5843E+04  setid=       0
 node=    10 local x,y,z forces =   -2.2800E+04   -3.5422E+03   -4.2080E+04  setid=       0
 node=    11 local x,y,z forces =   -5.7680E+03   -7.0739E+03   -6.7064E+04  setid=       0
 node=    12 local x,y,z forces =   -6.1619E+03   -7.1641E+03   -6.1833E+04  setid=       0
 node=    13 local x,y,z forces =   -2.5051E+03   -7.2917E+03   -6.1319E+04  setid=       0
 node=    14 local x,y,z forces =   -5.5802E+01   -7.3308E+03   -6.2267E+04  setid=       0
 node=    15 local x,y,z forces =    2.3969E+03   -7.3143E+03   -6.1513E+04  setid=       0
 node=    16 local x,y,z forces =    6.0809E+03   -7.2084E+03   -6.2210E+04  setid=       0
 node=    17 local x,y,z forces =    5.7129E+03   -7.1435E+03   -6.7650E+04  setid=       0
 node=    18 local x,y,z forces =    2.2990E+04   -3.5861E+03   -4.2460E+04  setid=       0
 node=    19 local x,y,z forces =   -2.1248E+04   -4.3110E+03   -3.7620E+04  setid=       0
 node=    20 local x,y,z forces =   -5.8368E+03   -8.5777E+03   -5.8010E+04  setid=       0
 node=    21 local x,y,z forces =   -6.2360E+03   -8.6367E+03   -5.2642E+04  setid=       0
 node=    22 local x,y,z forces =   -2.5122E+03   -8.7637E+03   -5.2155E+04  setid=       0
 node=    23 local x,y,z forces =   -3.9028E+01   -8.8221E+03   -5.3080E+04  setid=       0
 node=    24 local x,y,z forces =    2.4365E+03   -8.7909E+03   -5.2324E+04  setid=       0
 node=    25 local x,y,z forces =    6.1879E+03   -8.6908E+03   -5.2968E+04  setid=       0
 node=    26 local x,y,z forces =    5.8037E+03   -8.6628E+03   -5.8539E+04  setid=       0
 node=    27 local x,y,z forces =    2.1439E+04   -4.3632E+03   -3.7980E+04  setid=       0
 node=    28 local x,y,z forces =   -2.1122E+04   -2.7234E+03   -3.7995E+04  setid=       0
 node=    29 local x,y,z forces =   -5.9444E+03   -5.3789E+03   -5.8632E+04  setid=       0
 node=    30 local x,y,z forces =   -6.3884E+03   -5.3400E+03   -5.3269E+04  setid=       0
 node=    31 local x,y,z forces =   -2.5807E+03   -5.3854E+03   -5.2889E+04  setid=       0
 node=    32 local x,y,z forces =   -3.1409E+01   -5.4140E+03   -5.3832E+04  setid=       0
 node=    33 local x,y,z forces =    2.5197E+03   -5.4026E+03   -5.3062E+04  setid=       0
 node=    34 local x,y,z forces =    6.3550E+03   -5.3748E+03   -5.3605E+04  setid=       0
 node=    35 local x,y,z forces =    5.9192E+03   -5.4338E+03   -5.9186E+04  setid=       0
 node=    36 local x,y,z forces =    2.1323E+04   -2.7570E+03   -3.8378E+04  setid=       0
 node=    37 local x,y,z forces =   -2.1011E+04   -1.8885E+03   -3.7571E+04  setid=       0
 node=    38 local x,y,z forces =   -6.0179E+03   -3.7265E+03   -5.7630E+04  setid=       0
 node=    39 local x,y,z forces =   -6.4939E+03   -3.6870E+03   -5.2187E+04  setid=       0
 node=    40 local x,y,z forces =   -2.6362E+03   -3.7015E+03   -5.1849E+04  setid=       0
 node=    41 local x,y,z forces =   -2.6815E+01   -3.7145E+03   -5.2807E+04  setid=       0
 node=    42 local x,y,z forces =    2.5839E+03   -3.7136E+03   -5.2022E+04  setid=       0
 node=    43 local x,y,z forces =    6.4689E+03   -3.7114E+03   -5.2520E+04  setid=       0
 node=    44 local x,y,z forces =    5.9973E+03   -3.7643E+03   -5.8190E+04  setid=       0
 node=    45 local x,y,z forces =    2.1219E+04   -1.9115E+03   -3.7963E+04  setid=       0
 node=    46 local x,y,z forces =   -2.1008E+04   -8.7789E+02   -3.7728E+04  setid=       0
 node=    47 local x,y,z forces =   -6.0606E+03   -1.7281E+03   -5.7864E+04  setid=       0
 node=    48 local x,y,z forces =   -6.5556E+03   -1.6995E+03   -5.2384E+04  setid=       0
 node=    49 local x,y,z forces =   -2.6689E+03   -1.7003E+03   -5.2064E+04  setid=       0
 node=    50 local x,y,z forces =   -2.4540E+01   -1.7042E+03   -5.3017E+04  setid=       0
 node=    51 local x,y,z forces =    2.6209E+03   -1.7060E+03   -5.2238E+04  setid=       0
 node=    52 local x,y,z forces =    6.5348E+03   -1.7109E+03   -5.2722E+04  setid=       0
 node=    53 local x,y,z forces =    6.0422E+03   -1.7458E+03   -5.8434E+04  setid=       0
 node=    54 local x,y,z forces =    2.1220E+04   -8.8862E+02   -3.8129E+04  setid=       0
 node=    55 local x,y,z forces =   -2.0995E+04    6.1846E-11   -3.7610E+04  setid=       0
 node=    56 local x,y,z forces =   -6.0722E+03    9.0949E-11   -5.7591E+04  setid=       0
 node=    57 local x,y,z forces =   -6.5749E+03    6.1846E-11   -5.2086E+04  setid=       0
 node=    58 local x,y,z forces =   -2.6787E+03    4.3656E-11   -5.1776E+04  setid=       0
 node=    59 local x,y,z forces =   -2.3799E+01    1.8190E-11   -5.2736E+04  setid=       0
 node=    60 local x,y,z forces =    2.6321E+03    6.5484E-11   -5.1950E+04  setid=       0
 node=    61 local x,y,z forces =    6.5555E+03    7.6398E-11   -5.2424E+04  setid=       0
 node=    62 local x,y,z forces =    6.0545E+03    4.0018E-11   -5.8162E+04  setid=       0
 node=    63 local x,y,z forces =    2.1208E+04    0.0000E+00   -3.8012E+04  setid=       0
 node=    64 local x,y,z forces =   -2.1008E+04    8.7789E+02   -3.7728E+04  setid=       0
 node=    65 local x,y,z forces =   -6.0606E+03    1.7281E+03   -5.7864E+04  setid=       0
 node=    66 local x,y,z forces =   -6.5556E+03    1.6995E+03   -5.2384E+04  setid=       0
 node=    67 local x,y,z forces =   -2.6689E+03    1.7003E+03   -5.2064E+04  setid=       0
 node=    68 local x,y,z forces =   -2.4540E+01    1.7042E+03   -5.3017E+04  setid=       0
 node=    69 local x,y,z forces =    2.6209E+03    1.7060E+03   -5.2238E+04  setid=       0
 node=    70 local x,y,z forces =    6.5348E+03    1.7109E+03   -5.2722E+04  setid=       0
 node=    71 local x,y,z forces =    6.0422E+03    1.7458E+03   -5.8434E+04  setid=       0
 node=    72 local x,y,z forces =    2.1220E+04    8.8862E+02   -3.8129E+04  setid=       0
 node=    73 local x,y,z forces =   -2.1011E+04    1.8885E+03   -3.7571E+04  setid=       0
 node=    74 local x,y,z forces =   -6.0179E+03    3.7265E+03   -5.7630E+04  setid=       0
 node=    75 local x,y,z forces =   -6.4939E+03    3.6870E+03   -5.2187E+04  setid=       0
 node=    76 local x,y,z forces =   -2.6362E+03    3.7015E+03   -5.1849E+04  setid=       0
 node=    77 local x,y,z forces =   -2.6815E+01    3.7145E+03   -5.2807E+04  setid=       0
 node=    78 local x,y,z forces =    2.5839E+03    3.7136E+03   -5.2022E+04  setid=       0
 node=    79 local x,y,z forces =    6.4689E+03    3.7114E+03   -5.2520E+04  setid=       0
 node=    80 local x,y,z forces =    5.9973E+03    3.7643E+03   -5.8190E+04  setid=       0
 node=    81 local x,y,z forces =    2.1219E+04    1.9115E+03   -3.7963E+04  setid=       0
 node=    82 local x,y,z forces =   -2.1122E+04    2.7234E+03   -3.7995E+04  setid=       0
 node=    83 local x,y,z forces =   -5.9444E+03    5.3789E+03   -5.8632E+04  setid=       0
 node=    84 local x,y,z forces =   -6.3884E+03    5.3400E+03   -5.3269E+04  setid=       0
 node=    85 local x,y,z forces =   -2.5807E+03    5.3854E+03   -5.2889E+04  setid=       0
 node=    86 local x,y,z forces =   -3.1409E+01    5.4140E+03   -5.3832E+04  setid=       0
 node=    87 local x,y,z forces =    2.5197E+03    5.4026E+03   -5.3062E+04  setid=       0
 node=    88 local x,y,z forces =    6.3550E+03    5.3748E+03   -5.3605E+04  setid=       0
 node=    89 local x,y,z forces =    5.9192E+03    5.4338E+03   -5.9186E+04  setid=       0
 node=    90 local x,y,z forces =    2.1323E+04    2.7570E+03   -3.8378E+04  setid=       0
 node=    91 local x,y,z forces =   -2.1248E+04    4.3110E+03   -3.7620E+04  setid=       0
 node=    92 local x,y,z forces =   -5.8368E+03    8.5777E+03   -5.8010E+04  setid=       0
 node=    93 local x,y,z forces =   -6.2360E+03    8.6367E+03   -5.2642E+04  setid=       0
 node=    94 local x,y,z forces =   -2.5122E+03    8.7637E+03   -5.2155E+04  setid=       0
 node=    95 local x,y,z forces =   -3.9028E+01    8.8221E+03   -5.3080E+04  setid=       0
 node=    96 local x,y,z forces =    2.4365E+03    8.7909E+03   -5.2324E+04  setid=       0
 node=    97 local x,y,z forces =    6.1879E+03    8.6908E+03   -5.2968E+04  setid=       0
 node=    98 local x,y,z forces =    5.8037E+03    8.6628E+03   -5.8539E+04  setid=       0
 node=    99 local x,y,z forces =    2.1439E+04    4.3632E+03   -3.7980E+04  setid=       0
 node=   100 local x,y,z forces =   -2.2800E+04    3.5422E+03   -4.2080E+04  setid=       0
 node=   101 local x,y,z forces =   -5.7680E+03    7.0739E+03   -6.7064E+04  setid=       0
 node=   102 local x,y,z forces =   -6.1619E+03    7.1641E+03   -6.1833E+04  setid=       0
 node=   103 local x,y,z forces =   -2.5051E+03    7.2917E+03   -6.1319E+04  setid=       0
 node=   104 local x,y,z forces =   -5.5802E+01    7.3308E+03   -6.2267E+04  setid=       0
 node=   105 local x,y,z forces =    2.3969E+03    7.3143E+03   -6.1513E+04  setid=       0
 node=   106 local x,y,z forces =    6.0809E+03    7.2084E+03   -6.2210E+04  setid=       0
 node=   107 local x,y,z forces =    5.7129E+03    7.1435E+03   -6.7650E+04  setid=       0
 node=   108 local x,y,z forces =    2.2990E+04    3.5861E+03   -4.2460E+04  setid=       0
 node=   109 local x,y,z forces =   -1.2250E+04    1.2432E+04   -2.5613E+04  setid=       0
 node=   110 local x,y,z forces =   -2.9084E+03    2.3608E+04   -4.2732E+04  setid=       0
 node=   111 local x,y,z forces =   -3.0997E+03    2.2537E+04   -4.0230E+04  setid=       0
 node=   112 local x,y,z forces =   -1.2696E+03    2.2603E+04   -4.0045E+04  setid=       0
 node=   113 local x,y,z forces =   -3.4569E+01    2.2555E+04   -4.0572E+04  setid=       0
 node=   114 local x,y,z forces =    1.2026E+03    2.2672E+04   -4.0169E+04  setid=       0
 node=   115 local x,y,z forces =    3.0461E+03    2.2676E+04   -4.0473E+04  setid=       0
 node=   116 local x,y,z forces =    2.8716E+03    2.3816E+04   -4.3100E+04  setid=       0
 node=   117 local x,y,z forces =    1.2348E+04    1.2557E+04   -2.5843E+04  setid=       0
 node=  5855 local x,y,z forces =   -2.6375E+00   -9.1246E+04    0.0000E+00  setid=       0
 node=  5864 local x,y,z forces =   -7.3139E+00   -5.6719E+04    0.0000E+00  setid=       0
 node=  5873 local x,y,z forces =   -8.7328E+00   -3.2271E+04    0.0000E+00  setid=       0
 node=  5882 local x,y,z forces =   -1.0525E+01   -2.1222E+04    0.0000E+00  setid=       0
 node=  5891 local x,y,z forces =   -1.1996E+01   -1.2563E+04    0.0000E+00  setid=       0
 node=  5900 local x,y,z forces =   -1.2913E+01   -5.9025E+03    0.0000E+00  setid=       0
 node=  5909 local x,y,z forces =   -1.3243E+01   -2.8376E-10    0.0000E+00  setid=       0
 node=  5918 local x,y,z forces =   -1.2913E+01    5.9025E+03    0.0000E+00  setid=       0
 node=  5927 local x,y,z forces =   -1.1996E+01    1.2563E+04    0.0000E+00  setid=       0
 node=  5936 local x,y,z forces =   -1.0525E+01    2.1222E+04    0.0000E+00  setid=       0
 node=  5945 local x,y,z forces =   -8.7328E+00    3.2271E+04    0.0000E+00  setid=       0
 node=  5954 local x,y,z forces =   -7.3139E+00    5.6719E+04    0.0000E+00  setid=       0
 node=  5963 local x,y,z forces =   -2.6375E+00    9.1246E+04    0.0000E+00  setid=       0
             force resultants   =    3.3760E+01    2.9104E-11   -5.8337E+06
 output at time =   1.50000E-03
 node=     1 local x,y,z forces =   -1.8355E+04   -1.8622E+04   -3.8386E+04  setid=       0
 node=     2 local x,y,z forces =   -4.3695E+03   -3.5367E+04   -6.4043E+04  setid=       0
 node=     3 local x,y,z forces =   -4.6619E+03   -3.3776E+04   -6.0313E+04  setid=       0
 node=     4 local x,y,z forces =   -1.9192E+03   -3.3888E+04   -6.0063E+04  setid=       0
 node=     5 local x,y,z forces =   -6.7160E+01   -3.3833E+04   -6.0878E+04  setid=       0
 node=     6 local x,y,z forces =    1.7893E+03   -3.4023E+04   -6.0302E+04  setid=       0
 node=     7 local x,y,z forces =    4.5580E+03   -3.4043E+04   -6.0782E+04  setid=       0
 node=     8 local x,y,z forces =    4.2988E+03   -3.5769E+04   -6.4754E+04  setid=       0
 node=     9 local x,y,z forces =    1.8544E+04   -1.8862E+04   -3.8829E+04  setid=       0
 node=    10 local x,y,z forces =   -3.4160E+04   -5.3027E+03   -6.3061E+04  setid=       0
 node=    11 local x,y,z forces =   -8.6619E+03   -1.0594E+04   -1.0050E+05  setid=       0
 node=    12 local x,y,z forces =   -9.2618E+03   -1.0734E+04   -9.2692E+04  setid=       0
 node=    13 local x,y,z forces =   -3.7815E+03   -1.0930E+04   -9.1963E+04  setid=       0
 node=    14 local x,y,z forces =   -1.0845E+02   -1.0994E+04   -9.3425E+04  setid=       0
 node=    15 local x,y,z forces =    3.5717E+03   -1.0974E+04   -9.2337E+04  setid=       0
 node=    16 local x,y,z forces =    9.1047E+03   -1.0820E+04   -9.3420E+04  setid=       0
 node=    17 local x,y,z forces =    8.5566E+03   -1.0728E+04   -1.0163E+05  setid=       0
 node=    18 local x,y,z forces =    3.4526E+04   -5.3871E+03   -6.3794E+04  setid=       0
 node=    19 local x,y,z forces =   -3.1831E+04   -6.4558E+03   -5.6372E+04  setid=       0
 node=    20 local x,y,z forces =   -8.7603E+03   -1.2849E+04   -8.6925E+04  setid=       0
 node=    21 local x,y,z forces =   -9.3658E+03   -1.2944E+04   -7.8908E+04  setid=       0
 node=    22 local x,y,z forces =   -3.7849E+03   -1.3141E+04   -7.8214E+04  setid=       0
 node=    23 local x,y,z forces =   -7.5848E+01   -1.3234E+04   -7.9635E+04  setid=       0
 node=    24 local x,y,z forces =    3.6383E+03   -1.3193E+04   -7.8540E+04  setid=       0
 node=    25 local x,y,z forces =    9.2726E+03   -1.3049E+04   -7.9539E+04  setid=       0
 node=    26 local x,y,z forces =    8.6977E+03   -1.3014E+04   -8.7945E+04  setid=       0
 node=    27 local x,y,z forces =    3.2200E+04   -6.5564E+03   -5.7064E+04  setid=       0
 node=    28 local x,y,z forces =   -3.1640E+04   -4.0781E+03   -5.6930E+04  setid=       0
 node=    29 local x,y,z forces =   -8.9200E+03   -8.0567E+03   -8.7853E+04  setid=       0
 node=    30 local x,y,z forces =   -9.5912E+03   -8.0026E+03   -7.9847E+04  setid=       0
 node=    31 local x,y,z forces =   -3.8845E+03   -8.0746E+03   -7.9313E+04  setid=       0
 node=    32 local x,y,z forces =   -6.1050E+01   -8.1212E+03   -8.0764E+04  setid=       0
 node=    33 local x,y,z forces =    3.7665E+03   -8.1079E+03   -7.9648E+04  setid=       0
 node=    34 local x,y,z forces =    9.5265E+03   -8.0700E+03   -8.0495E+04  setid=       0
 node=    35 local x,y,z forces =    8.8725E+03   -8.1628E+03   -8.8922E+04  setid=       0
 node=    36 local x,y,z forces =    3.2028E+04   -4.1428E+03   -5.7668E+04  setid=       0
 node=    37 local x,y,z forces =   -3.1472E+04   -2.8280E+03   -5.6292E+04  setid=       0
 node=    38 local x,y,z forces =   -9.0292E+03   -5.5819E+03   -8.6348E+04  setid=       0
 node=    39 local x,y,z forces =   -9.7475E+03   -5.5256E+03   -7.8222E+04  setid=       0
 node=    40 local x,y,z forces =   -3.9658E+03   -5.5501E+03   -7.7753E+04  setid=       0
 node=    41 local x,y,z forces =   -5.2091E+01   -5.5722E+03   -7.9225E+04  setid=       0
 node=    42 local x,y,z forces =    3.8648E+03   -5.5734E+03   -7.8086E+04  setid=       0
 node=    43 local x,y,z forces =    9.6993E+03   -5.5727E+03   -7.8867E+04  setid=       0
 node=    44 local x,y,z forces =    8.9908E+03   -5.6551E+03   -8.7427E+04  setid=       0
 node=    45 local x,y,z forces =    3.1873E+04   -2.8724E+03   -5.7046E+04  setid=       0
 node=    46 local x,y,z forces =   -3.1467E+04   -1.3146E+03   -5.6525E+04  setid=       0
 node=    47 local x,y,z forces =   -9.0928E+03   -2.5885E+03   -8.6696E+04  setid=       0
 node=    48 local x,y,z forces =   -9.8391E+03   -2.5469E+03   -7.8518E+04  setid=       0
 node=    49 local x,y,z forces =   -4.0139E+03   -2.5494E+03   -7.8075E+04  setid=       0
 node=    50 local x,y,z forces =   -4.7659E+01   -2.5563E+03   -7.9540E+04  setid=       0
 node=    51 local x,y,z forces =    3.9212E+03   -2.5603E+03   -7.8412E+04  setid=       0
 node=    52 local x,y,z forces =    9.7990E+03   -2.5690E+03   -7.9171E+04  setid=       0
 node=    53 local x,y,z forces =    9.0585E+03   -2.6228E+03   -8.7796E+04  setid=       0
 node=    54 local x,y,z forces =    3.1876E+04   -1.3353E+03   -5.7297E+04  setid=       0
 node=    55 local x,y,z forces =   -3.1447E+04    3.2742E-11   -5.6347E+04  setid=       0
 node=    56 local x,y,z forces =   -9.1101E+03    1.8190E-11   -8.6287E+04  setid=       0
 node=    57 local x,y,z forces =   -9.8679E+03   -1.0914E-11   -7.8071E+04  setid=       0
 node=    58 local x,y,z forces =   -4.0283E+03    3.6380E-11   -7.7643E+04  setid=       0
 node=    59 local x,y,z forces =   -4.6210E+01    2.9104E-11   -7.9119E+04  setid=       0
 node=    60 local x,y,z forces =    3.9383E+03    1.4552E-11   -7.7979E+04  setid=       0
 node=    61 local x,y,z forces =    9.8304E+03    8.0036E-11   -7.8722E+04  setid=       0
 node=    62 local x,y,z forces =    9.0771E+03    3.2742E-11   -8.7388E+04  setid=       0
 node=    63 local x,y,z forces =    3.1858E+04   -1.8190E-11   -5.7122E+04  setid=       0
 node=    64 local x,y,z forces =   -3.1467E+04    1.3146E+03   -5.6525E+04  setid=       0
 node=    65 local x,y,z forces =   -9.0928E+03    2.5885E+03   -8.6696E+04  setid=       0
 node=    66 local x,y,z forces =   -9.8391E+03    2.5469E+03   -7.8518E+04  setid=       0
 node=    67 local x,y,z forces =   -4.0139E+03    2.5494E+03   -7.8075E+04  setid=       0
 node=    68 local x,y,z forces =   -4.7659E+01    2.5563E+03   -7.9540E+04  setid=       0
 node=    69 local x,y,z forces =    3.9212E+03    2.5603E+03   -7.8412E+04  setid=       0
 node=    70 local x,y,z forces =    9.7990E+03    2.5690E+03   -7.9171E+04  setid=       0
 node=    71 local x,y,z forces =    9.0585E+03    2.6228E+03   -8.7796E+04  setid=       0
 node=    72 local x,y,z forces =    3.1876E+04    1.3353E+03   -5.7297E+04  setid=       0
 node=    73 local x,y,z forces =   -3.1472E+04    2.8280E+03   -5.6292E+04  setid=       0
 node=    74 local x,y,z forces =   -9.0292E+03    5.5819E+03   -8.6348E+04  setid=       0
 node=    75 local x,y,z forces =   -9.7475E+03    5.5256E+03   -7.8222E+04  setid=       0
 node=    76 local x,y,z forces =   -3.9658E+03    5.5501E+03   -7.7753E+04  setid=       0
 node=    77 local x,y,z forces =   -5.2091E+01    5.5722E+03   -7.9225E+04  setid=       0
 node=    78 local x,y,z forces =    3.8648E+03    5.5734E+03   -7.8086E+04  setid=       0
 node=    79 local x,y,z forces =    9.6993E+03    5.5727E+03   -7.8867E+04  setid=       0
 node=    80 local x,y,z forces =    8.9908E+03    5.6551E+03   -8.7427E+04  setid=       0
 node=    81 local x,y,z forces =    3.1873E+04    2.8724E+03   -5.7046E+04  setid=       0
 node=    82 local x,y,z forces =   -3.1640E+04    4.0781E+03   -5.6930E+04  setid=       0
 node=    83 local x,y,z forces =   -8.9200E+03    8.0567E+03   -8.7853E+04  setid=       0
 node=    84 local x,y,z forces =   -9.5912E+03    8.0026E+03   -7.9847E+04  setid=       0
 node=    85 local x,y,z forces =   -3.8845E+03    8.0746E+03   -7.9313E+04  setid=       0
 node=    86 local x,y,z forces =   -6.1050E+01    8.1212E+03   -8.0764E+04  setid=       0
 node=    87 local x,y,z forces =    3.7665E+03    8.1079E+03   -7.9648E+04  setid=       0
 node=    88 local x,y,z forces =    9.5265E+03    8.0700E+03   -8.0495E+04  setid=       0
 node=    89 local x,y,z forces =    8.8725E+03    8.1628E+03   -8.8922E+04  setid=       0
 node=    90 local x,y,z forces =    3.2028E+04    4.1428E+03   -5.7668E+04  setid=       0
 node=    91 local x,y,z forces =   -3.1831E+04    6.4558E+03   -5.6372E+04  setid=       0
 node=    92 local x,y,z forces =   -8.7603E+03    1.2849E+04   -8.6925E+04  setid=       0
 node=    93 local x,y,z forces =   -9.3658E+03    1.2944E+04   -7.8908E+04  setid=       0
 node=    94 local x,y,z forces =   -3.7849E+03    1.3141E+04   -7.8214E+04  setid=       0
 node=    95 local x,y,z forces =   -7.5848E+01    1.3234E+04   -7.9635E+04  setid=       0
 node=    96 local x,y,z forces =    3.6383E+03    1.3193E+04   -7.8540E+04  setid=       0
 node=    97 local x,y,z forces =    9.2726E+03    1.3049E+04   -7.9539E+04  setid=       0
 node=    98 local x,y,z forces =    8.6977E+03    1.3014E+04   -8.7945E+04  setid=       0
 node=    99 local x,y,z forces =    3.2200E+04    6.5564E+03   -5.7064E+04  setid=       0
 node=   100 local x,y,z forces =   -3.4160E+04    5.3027E+03   -6.3061E+04  setid=       0
 node=   101 local x,y,z forces =   -8.6619E+03    1.0594E+04   -1.0050E+05  setid=       0
 node=   102 local x,y,z forces =   -9.2618E+03    1.0734E+04   -9.2692E+04  setid=       0
 node=   103 local x,y,z forces =   -3.7815E+03    1.0930E+04   -9.1963E+04  setid=       0
 node=   104 local x,y,z forces =   -1.0845E+02    1.0994E+04   -9.3425E+04  setid=       0
 node=   105 local x,y,z forces =    3.5717E+03    1.0974E+04   -9.2337E+04  setid=       0
 node=   106 local x,y,z forces =    9.1047E+03    1.0820E+04   -9.3420E+04  setid=       0
 node=   107 local x,y,z forces =    8.5566E+03    1.0728E+04   -1.0163E+05  setid=       0
 node=   108 local x,y,z forces =    3.4526E+04    5.3871E+03   -6.3794E+04  setid=       0
 node=   109 local x,y,z forces =   -1.8355E+04    1.8622E+04   -3.8386E+04  setid=       0
 node=   110 local x,y,z forces =   -4.3695E+03    3.5367E+04   -6.4043E+04  setid=       0
 node=   111 local x,y,z forces =   -4.6619E+03    3.3776E+04   -6.0313E+04  setid=       0
 node=   112 local x,y,z forces =   -1.9192E+03    3.3888E+04   -6.0063E+04  setid=       0
 node=   113 local x,y,z forces =   -6.7160E+01    3.3833E+04   -6.0878E+04  setid=       0
 node=   114 local x,y,z forces =    1.7893E+03    3.4023E+04   -6.0302E+04  setid=       0
 node=   115 local x,y,z forces =    4.5580E+03    3.4043E+04   -6.0782E+04  setid=       0
 node=   116 local x,y,z forces =    4.2988E+03    3.5769E+04   -6.4754E+04  setid=       0
 node=   117 local x,y,z forces =    1.8544E+04    1.8862E+04   -3.8829E+04  setid=       0
 node=  5855 local x,y,z forces =   -5.9256E+00   -1.3685E+05    0.0000E+00  setid=       0
 node=  5864 local x,y,z forces =   -1.7626E+01   -8.5053E+04    0.0000E+00  setid=       0
 node=  5873 local x,y,z forces =   -2.0856E+01   -4.8391E+04    0.0000E+00  setid=       0
 node=  5882 local x,y,z forces =   -2.4669E+01   -3.1824E+04    0.0000E+00  setid=       0
 node=  5891 local x,y,z forces =   -2.7854E+01   -1.8838E+04    0.0000E+00  setid=       0
 node=  5900 local x,y,z forces =   -2.9801E+01   -8.8507E+03    0.0000E+00  setid=       0
 node=  5909 local x,y,z forces =   -3.0511E+01   -2.3283E-10    0.0000E+00  setid=       0
 node=  5918 local x,y,z forces =   -2.9801E+01    8.8507E+03    0.0000E+00  setid=       0
 node=  5927 local x,y,z forces =   -2.7854E+01    1.8838E+04    0.0000E+00  setid=       0
 node=  5936 local x,y,z forces =   -2.4669E+01    3.1824E+04    0.0000E+00  setid=       0
 node=  5945 local x,y,z forces =   -2.0856E+01    4.8391E+04    0.0000E+00  setid=       0
 node=  5954 local x,y,z forces =   -1.7626E+01    8.5053E+04    0.0000E+00  setid=       0
 node=  5963 local x,y,z forces =   -5.9256E+00    1.3685E+05    0.0000E+00  setid=       0
             force resultants   =    1.2708E+01   -1.6880E-09   -8.7528E+06
 output at time =   2.00000E-03
 node=     1 local x,y,z forces =   -2.4036E+04   -2.4277E+04   -5.0183E+04  setid=       0
 node=     2 local x,y,z forces =   -5.9825E+03   -4.6223E+04   -8.3775E+04  setid=       0
 node=     3 local x,y,z forces =   -6.4594E+03   -4.4408E+04   -7.9347E+04  setid=       0
 node=     4 local x,y,z forces =   -2.8634E+03   -4.4865E+04   -7.9547E+04  setid=       0
 node=     5 local x,y,z forces =   -4.0657E+02   -4.5105E+04   -8.1190E+04  setid=       0
 node=     6 local x,y,z forces =    2.0809E+03   -4.5673E+04   -8.0980E+04  setid=       0
 node=     7 local x,y,z forces =    5.8341E+03   -4.6007E+04   -8.2152E+04  setid=       0
 node=     8 local x,y,z forces =    5.5717E+03   -4.8617E+04   -8.8002E+04  setid=       0
 node=     9 local x,y,z forces =    2.5160E+04   -2.5697E+04   -5.2801E+04  setid=       0
 node=    10 local x,y,z forces =   -4.4701E+04   -6.8753E+03   -8.2431E+04  setid=       0
 node=    11 local x,y,z forces =   -1.1779E+04   -1.3810E+04   -1.3143E+05  setid=       0
 node=    12 local x,y,z forces =   -1.2717E+04   -1.4111E+04   -1.2192E+05  setid=       0
 node=    13 local x,y,z forces =   -5.5330E+03   -1.4468E+04   -1.2177E+05  setid=       0
 node=    14 local x,y,z forces =   -6.5706E+02   -1.4654E+04   -1.2459E+05  setid=       0
 node=    15 local x,y,z forces =    4.2705E+03   -1.4729E+04   -1.2401E+05  setid=       0
 node=    16 local x,y,z forces =    1.1772E+04   -1.4620E+04   -1.2627E+05  setid=       0
 node=    17 local x,y,z forces =    1.1173E+04   -1.4610E+04   -1.3815E+05  setid=       0
 node=    18 local x,y,z forces =    4.6874E+04   -7.3731E+03   -8.6754E+04  setid=       0
 node=    19 local x,y,z forces =   -4.1587E+04   -8.3760E+03   -7.3599E+04  setid=       0
 node=    20 local x,y,z forces =   -1.1811E+04   -1.6750E+04   -1.1358E+05  setid=       0
 node=    21 local x,y,z forces =   -1.2705E+04   -1.7016E+04   -1.0376E+05  setid=       0
 node=    22 local x,y,z forces =   -5.3888E+03   -1.7398E+04   -1.0354E+05  setid=       0
 node=    23 local x,y,z forces =   -4.5968E+02   -1.7645E+04   -1.0619E+05  setid=       0
 node=    24 local x,y,z forces =    4.5081E+03   -1.7713E+04   -1.0549E+05  setid=       0
 node=    25 local x,y,z forces =    1.2147E+04   -1.7641E+04   -1.0752E+05  setid=       0
 node=    26 local x,y,z forces =    1.1460E+04   -1.7733E+04   -1.1962E+05  setid=       0
 node=    27 local x,y,z forces =    4.3779E+04   -8.9733E+03   -7.7683E+04  setid=       0
 node=    28 local x,y,z forces =   -4.1286E+04   -5.2876E+03   -7.4238E+04  setid=       0
 node=    29 local x,y,z forces =   -1.1988E+04   -1.0494E+04   -1.1470E+05  setid=       0
 node=    30 local x,y,z forces =   -1.2939E+04   -1.0512E+04   -1.0497E+05  setid=       0
 node=    31 local x,y,z forces =   -5.4539E+03   -1.0688E+04   -1.0499E+05  setid=       0
 node=    32 local x,y,z forces =   -3.6992E+02   -1.0827E+04   -1.0770E+05  setid=       0
 node=    33 local x,y,z forces =    4.7466E+03   -1.0887E+04   -1.0699E+05  setid=       0
 node=    34 local x,y,z forces =    1.2552E+04   -1.0916E+04   -1.0884E+05  setid=       0
 node=    35 local x,y,z forces =    1.1728E+04   -1.1130E+04   -1.2104E+05  setid=       0
 node=    36 local x,y,z forces =    4.3596E+04   -5.6727E+03   -7.8593E+04  setid=       0
 node=    37 local x,y,z forces =   -4.1034E+04   -3.6681E+03   -7.3347E+04  setid=       0
 node=    38 local x,y,z forces =   -1.2113E+04   -7.2715E+03   -1.1267E+05  setid=       0
 node=    39 local x,y,z forces =   -1.3108E+04   -7.2574E+03   -1.0281E+05  setid=       0
 node=    40 local x,y,z forces =   -5.5217E+03   -7.3454E+03   -1.0291E+05  setid=       0
 node=    41 local x,y,z forces =   -3.1513E+02   -7.4294E+03   -1.0564E+05  setid=       0
 node=    42 local x,y,z forces =    4.9184E+03   -7.4855E+03   -1.0490E+05  setid=       0
 node=    43 local x,y,z forces =    1.2822E+04   -7.5401E+03   -1.0666E+05  setid=       0
 node=    44 local x,y,z forces =    1.1907E+04   -7.7108E+03   -1.1907E+05  setid=       0
 node=    45 local x,y,z forces =    4.3418E+04   -3.9324E+03   -7.7803E+04  setid=       0
 node=    46 local x,y,z forces =   -4.1008E+04   -1.7047E+03   -7.3618E+04  setid=       0
 node=    47 local x,y,z forces =   -1.2188E+04   -3.3711E+03   -1.1308E+05  setid=       0
 node=    48 local x,y,z forces =   -1.3211E+04   -3.3441E+03   -1.0319E+05  setid=       0
 node=    49 local x,y,z forces =   -5.5661E+03   -3.3734E+03   -1.0333E+05  setid=       0
 node=    50 local x,y,z forces =   -2.8803E+02   -3.4083E+03   -1.0606E+05  setid=       0
 node=    51 local x,y,z forces =    5.0134E+03   -3.4391E+03   -1.0534E+05  setid=       0
 node=    52 local x,y,z forces =    1.2974E+04   -3.4767E+03   -1.0708E+05  setid=       0
 node=    53 local x,y,z forces =    1.2007E+04   -3.5770E+03   -1.1961E+05  setid=       0
 node=    54 local x,y,z forces =    4.3440E+04   -1.8284E+03   -7.8179E+04  setid=       0
 node=    55 local x,y,z forces =   -4.0975E+04   -1.8190E-11   -7.3375E+04  setid=       0
 node=    56 local x,y,z forces =   -1.2208E+04   -2.9104E-11   -1.1254E+05  setid=       0
 node=    57 local x,y,z forces =   -1.3243E+04   -1.4552E-11   -1.0259E+05  setid=       0
 node=    58 local x,y,z forces =   -5.5787E+03   -3.6380E-11   -1.0276E+05  setid=       0
 node=    59 local x,y,z forces =   -2.7910E+02   -1.4552E-11   -1.0550E+05  setid=       0
 node=    60 local x,y,z forces =    5.0429E+03   -4.3656E-11   -1.0476E+05  setid=       0
 node=    61 local x,y,z forces =    1.3022E+04   -2.9104E-11   -1.0648E+05  setid=       0
 node=    62 local x,y,z forces =    1.2035E+04   -4.3656E-11   -1.1907E+05  setid=       0
 node=    63 local x,y,z forces =    4.3423E+04   -5.8208E-11   -7.7950E+04  setid=       0
 node=    64 local x,y,z forces =   -4.1008E+04    1.7047E+03   -7.3618E+04  setid=       0
 node=    65 local x,y,z forces =   -1.2188E+04    3.3711E+03   -1.1308E+05  setid=       0
 node=    66 local x,y,z forces =   -1.3211E+04    3.3441E+03   -1.0319E+05  setid=       0
 node=    67 local x,y,z forces =   -5.5661E+03    3.3734E+03   -1.0333E+05  setid=       0
 node=    68 local x,y,z forces =   -2.8803E+02    3.4083E+03   -1.0606E+05  setid=       0
 node=    69 local x,y,z forces =    5.0134E+03    3.4391E+03   -1.0534E+05  setid=       0
 node=    70 local x,y,z forces =    1.2974E+04    3.4767E+03   -1.0708E+05  setid=       0
 node=    71 local x,y,z forces =    1.2007E+04    3.5770E+03   -1.1961E+05  setid=       0
 node=    72 local x,y,z forces =    4.3440E+04    1.8284E+03   -7.8179E+04  setid=       0
 node=    73 local x,y,z forces =   -4.1034E+04    3.6681E+03   -7.3347E+04  setid=       0
 node=    74 local x,y,z forces =   -1.2113E+04    7.2715E+03   -1.1267E+05  setid=       0
 node=    75 local x,y,z forces =   -1.3108E+04    7.2574E+03   -1.0281E+05  setid=       0
 node=    76 local x,y,z forces =   -5.5217E+03    7.3454E+03   -1.0291E+05  setid=       0
 node=    77 local x,y,z forces =   -3.1513E+02    7.4294E+03   -1.0564E+05  setid=       0
 node=    78 local x,y,z forces =    4.9184E+03    7.4855E+03   -1.0490E+05  setid=       0
 node=    79 local x,y,z forces =    1.2822E+04    7.5401E+03   -1.0666E+05  setid=       0
 node=    80 local x,y,z forces =    1.1907E+04    7.7108E+03   -1.1907E+05  setid=       0
 node=    81 local x,y,z forces =    4.3418E+04    3.9324E+03   -7.7803E+04  setid=       0
 node=    82 local x,y,z forces =   -4.1286E+04    5.2876E+03   -7.4238E+04  setid=       0
 node=    83 local x,y,z forces =   -1.1988E+04    1.0494E+04   -1.1470E+05  setid=       0
 node=    84 local x,y,z forces =   -1.2939E+04    1.0512E+04   -1.0497E+05  setid=       0
 node=    85 local x,y,z forces =   -5.4539E+03    1.0688E+04   -1.0499E+05  setid=       0
 node=    86 local x,y,z forces =   -3.6992E+02    1.0827E+04   -1.0770E+05  setid=       0
 node=    87 local x,y,z forces =    4.7466E+03    1.0887E+04   -1.0699E+05  setid=       0
 node=    88 local x,y,z forces =    1.2552E+04    1.0916E+04   -1.0884E+05  setid=       0
 node=    89 local x,y,z forces =    1.1728E+04    1.1130E+04   -1.2104E+05  setid=       0
 node=    90 local x,y,z forces =    4.3596E+04    5.6727E+03   -7.8593E+04  setid=       0
 node=    91 local x,y,z forces =   -4.1587E+04    8.3760E+03   -7.3599E+04  setid=       0
 node=    92 local x,y,z forces =   -1.1811E+04    1.6750E+04   -1.1358E+05  setid=       0
 node=    93 local x,y,z forces =   -1.2705E+04    1.7016E+04   -1.0376E+05  setid=       0
 node=    94 local x,y,z forces =   -5.3888E+03    1.7398E+04   -1.0354E+05  setid=       0
 node=    95 local x,y,z forces =   -4.5968E+02    1.7645E+04   -1.0619E+05  setid=       0
 node=    96 local x,y,z forces =    4.5081E+03    1.7713E+04   -1.0549E+05  setid=       0
 node=    97 local x,y,z forces =    1.2147E+04    1.7641E+04   -1.0752E+05  setid=       0
 node=    98 local x,y,z forces =    1.1460E+04    1.7733E+04   -1.1962E+05  setid=       0
 node=    99 local x,y,z forces =    4.3779E+04    8.9733E+03   -7.7683E+04  setid=       0
 node=   100 local x,y,z forces =   -4.4701E+04    6.8753E+03   -8.2431E+04  setid=       0
 node=   101 local x,y,z forces =   -1.1779E+04    1.3810E+04   -1.3143E+05  setid=       0
 node=   102 local x,y,z forces =   -1.2717E+04    1.4111E+04   -1.2192E+05  setid=       0
 node=   103 local x,y,z forces =   -5.5330E+03    1.4468E+04   -1.2177E+05  setid=       0
 node=   104 local x,y,z forces =   -6.5706E+02    1.4654E+04   -1.2459E+05  setid=       0
 node=   105 local x,y,z forces =    4.2705E+03    1.4729E+04   -1.2401E+05  setid=       0
 node=   106 local x,y,z forces =    1.1772E+04    1.4620E+04   -1.2627E+05  setid=       0
 node=   107 local x,y,z forces =    1.1173E+04    1.4610E+04   -1.3815E+05  setid=       0
 node=   108 local x,y,z forces =    4.6874E+04    7.3731E+03   -8.6754E+04  setid=       0
 node=   109 local x,y,z forces =   -2.4036E+04    2.4277E+04   -5.0183E+04  setid=       0
 node=   110 local x,y,z forces =   -5.9825E+03    4.6223E+04   -8.3775E+04  setid=       0
 node=   111 local x,y,z forces =   -6.4594E+03    4.4408E+04   -7.9347E+04  setid=       0
 node=   112 local x,y,z forces =   -2.8634E+03    4.4865E+04   -7.9547E+04  setid=       0
 node=   113 local x,y,z forces =   -4.0657E+02    4.5105E+04   -8.1190E+04  setid=       0
 node=   114 local x,y,z forces =    2.0809E+03    4.5673E+04   -8.0980E+04  setid=       0
 node=   115 local x,y,z forces =    5.8341E+03    4.6007E+04   -8.2152E+04  setid=       0
 node=   116 local x,y,z forces =    5.5717E+03    4.8617E+04   -8.8002E+04  setid=       0
 node=   117 local x,y,z forces =    2.5160E+04    2.5697E+04   -5.2801E+04  setid=       0
 node=  5855 local x,y,z forces =   -1.2176E+01   -1.8243E+05    0.0000E+00  setid=       0
 node=  5864 local x,y,z forces =   -1.0111E+02   -1.1336E+05    0.0000E+00  setid=       0
 node=  5873 local x,y,z forces =   -1.3065E+02   -6.4494E+04    0.0000E+00  setid=       0
 node=  5882 local x,y,z forces =   -1.6060E+02   -4.2416E+04    0.0000E+00  setid=       0
 node=  5891 local x,y,z forces =   -1.8698E+02   -2.5106E+04    0.0000E+00  setid=       0
 node=  5900 local x,y,z forces =   -2.0234E+02   -1.1796E+04    0.0000E+00  setid=       0
 node=  5909 local x,y,z forces =   -2.0819E+02    1.8917E-10    0.0000E+00  setid=       0
 node=  5918 local x,y,z forces =   -2.0234E+02    1.1796E+04    0.0000E+00  setid=       0
 node=  5927 local x,y,z forces =   -1.8698E+02    2.5106E+04    0.0000E+00  setid=       0
 node=  5936 local x,y,z forces =   -1.6060E+02    4.2416E+04    0.0000E+00  setid=       0
 node=  5945 local x,y,z forces =   -1.3065E+02    6.4494E+04    0.0000E+00  setid=       0
 node=  5954 local x,y,z forces =   -1.0111E+02    1.1336E+05    0.0000E+00  setid=       0
 node=  5963 local x,y,z forces =   -1.2176E+01    1.8243E+05    0.0000E+00  setid=       0
             force resultants   =   -7.9069E-01   -1.4843E-09   -1.1672E+07
 output at time =   2.50000E-03
 node=     1 local x,y,z forces =   -4.1466E+03    1.3126E+03   -3.6492E+03  setid=       0
 node=     2 local x,y,z forces =   -1.4474E+04   -3.4682E+03   -8.5538E+03  setid=       0
 node=     3 local x,y,z forces =   -1.9281E+04   -1.7029E+04   -3.1483E+04  setid=       0
 node=     4 local x,y,z forces =   -1.8466E+04   -3.3047E+04   -5.8550E+04  setid=       0
 node=     5 local x,y,z forces =   -1.6438E+04   -4.9142E+04   -8.8427E+04  setid=       0
 node=     6 local x,y,z forces =   -1.3124E+04   -6.5589E+04   -1.1630E+05  setid=       0
 node=     7 local x,y,z forces =   -5.9604E+03   -8.1450E+04   -1.4450E+05  setid=       0
 node=     8 local x,y,z forces =   -1.9512E+03   -9.9774E+04   -1.7860E+05  setid=       0
 node=     9 local x,y,z forces =    4.9388E+04   -5.5743E+04   -1.0877E+05  setid=       0
 node=    10 local x,y,z forces =   -6.1486E+03    2.2043E+03   -5.5569E+03  setid=       0
 node=    11 local x,y,z forces =   -2.4531E+04    6.1723E+02   -1.1677E+04  setid=       0
 node=    12 local x,y,z forces =   -3.2372E+04   -5.3852E+03   -4.7515E+04  setid=       0
 node=    13 local x,y,z forces =   -3.0791E+04   -1.0640E+04   -8.8798E+04  setid=       0
 node=    14 local x,y,z forces =   -2.6572E+04   -1.5950E+04   -1.3566E+05  setid=       0
 node=    15 local x,y,z forces =   -2.0174E+04   -2.1138E+04   -1.7883E+05  setid=       0
 node=    16 local x,y,z forces =   -5.7707E+03   -2.5871E+04   -2.2284E+05  setid=       0
 node=    17 local x,y,z forces =    3.6083E+02   -3.1541E+04   -2.8188E+05  setid=       0
 node=    18 local x,y,z forces =    9.3513E+04   -1.7770E+04   -1.7907E+05  setid=       0
 node=    19 local x,y,z forces =   -2.4285E+03    2.5455E+03   -5.9896E+02  setid=       0
 node=    20 local x,y,z forces =   -1.9578E+04    9.9733E+02   -5.4071E+03  setid=       0
 node=    21 local x,y,z forces =   -2.4807E+04   -6.2886E+03   -3.9266E+04  setid=       0
 node=    22 local x,y,z forces =   -2.3144E+04   -1.2794E+04   -7.4563E+04  setid=       0
 node=    23 local x,y,z forces =   -1.8592E+04   -1.9232E+04   -1.1561E+05  setid=       0
 node=    24 local x,y,z forces =   -1.2384E+04   -2.5474E+04   -1.5300E+05  setid=       0
 node=    25 local x,y,z forces =    2.2848E+03   -3.1486E+04   -1.9083E+05  setid=       0
 node=    26 local x,y,z forces =    5.7191E+03   -3.8591E+04   -2.4845E+05  setid=       0
 node=    27 local x,y,z forces =    9.0548E+04   -2.1470E+04   -1.6447E+05  setid=       0
 node=    28 local x,y,z forces =    2.2138E+02    1.7687E+03    4.0090E+03  setid=       0
 node=    29 local x,y,z forces =   -1.7961E+04    1.0410E+03   -8.6647E+02  setid=       0
 node=    30 local x,y,z forces =   -2.1658E+04   -3.5274E+03   -3.8642E+04  setid=       0
 node=    31 local x,y,z forces =   -1.9793E+04   -7.7333E+03   -7.5142E+04  setid=       0
 node=    32 local x,y,z forces =   -1.4962E+04   -1.1799E+04   -1.1726E+05  setid=       0
 node=    33 local x,y,z forces =   -8.7240E+03   -1.5777E+04   -1.5564E+05  setid=       0
 node=    34 local x,y,z forces =    6.0932E+03   -1.9824E+04   -1.9423E+05  setid=       0
 node=    35 local x,y,z forces =    7.7388E+03   -2.4613E+04   -2.5577E+05  setid=       0
 node=    36 local x,y,z forces =    9.2656E+04   -1.3723E+04   -1.7081E+05  setid=       0
 node=    37 local x,y,z forces =    1.9549E+03    1.1734E+03    6.9403E+03  setid=       0
 node=    38 local x,y,z forces =   -1.7024E+04    6.8898E+02    2.6023E+03  setid=       0
 node=    39 local x,y,z forces =   -1.9875E+04   -2.3646E+03   -3.6702E+04  setid=       0
 node=    40 local x,y,z forces =   -1.7820E+04   -5.2579E+03   -7.3147E+04  setid=       0
 node=    41 local x,y,z forces =   -1.2740E+04   -8.0973E+03   -1.1502E+05  setid=       0
 node=    42 local x,y,z forces =   -6.4838E+03   -1.0907E+04   -1.5310E+05  setid=       0
 node=    43 local x,y,z forces =    8.3716E+03   -1.3765E+04   -1.9144E+05  setid=       0
 node=    44 local x,y,z forces =    9.0089E+03   -1.7027E+04   -2.5487E+05  setid=       0
 node=    45 local x,y,z forces =    9.3941E+04   -9.4637E+03   -1.7193E+05  setid=       0
 node=    46 local x,y,z forces =    2.9365E+03    5.6212E+02    8.7063E+03  setid=       0
 node=    47 local x,y,z forces =   -1.6609E+04    3.6594E+02    4.5606E+03  setid=       0
 node=    48 local x,y,z forces =   -1.9019E+04   -1.0423E+03   -3.6153E+04  setid=       0
 node=    49 local x,y,z forces =   -1.6867E+04   -2.3863E+03   -7.3148E+04  setid=       0
 node=    50 local x,y,z forces =   -1.1641E+04   -3.7144E+03   -1.1548E+05  setid=       0
 node=    51 local x,y,z forces =   -5.3843E+03   -5.0381E+03   -1.5405E+05  setid=       0
 node=    52 local x,y,z forces =    9.4986E+03   -6.3919E+03   -1.9287E+05  setid=       0
 node=    53 local x,y,z forces =    9.5901E+03   -7.9419E+03   -2.5788E+05  setid=       0
 node=    54 local x,y,z forces =    9.4917E+04   -4.4159E+03   -1.7443E+05  setid=       0
 node=    55 local x,y,z forces =    3.2569E+03    4.4747E-10    9.2460E+03  setid=       0
 node=    56 local x,y,z forces =   -1.6467E+04    1.0623E-09    5.2543E+03  setid=       0
 node=    57 local x,y,z forces =   -1.8737E+04   -1.4552E-11   -3.5667E+04  setid=       0
 node=    58 local x,y,z forces =   -1.6550E+04    1.8190E-10   -7.2616E+04  setid=       0
 node=    59 local x,y,z forces =   -1.1279E+04    3.6380E-10   -1.1487E+05  setid=       0
 node=    60 local x,y,z forces =   -5.0178E+03   -4.3656E-11   -1.5332E+05  setid=       0
 node=    61 local x,y,z forces =    9.8736E+03   -1.3097E-10   -1.9206E+05  setid=       0
 node=    62 local x,y,z forces =    9.7891E+03    1.0332E-09   -2.5738E+05  setid=       0
 node=    63 local x,y,z forces =    9.5189E+04    7.5670E-10   -1.7446E+05  setid=       0
 node=    64 local x,y,z forces =    2.9365E+03   -5.6212E+02    8.7063E+03  setid=       0
 node=    65 local x,y,z forces =   -1.6609E+04   -3.6594E+02    4.5606E+03  setid=       0
 node=    66 local x,y,z forces =   -1.9019E+04    1.0423E+03   -3.6153E+04  setid=       0
 node=    67 local x,y,z forces =   -1.6867E+04    2.3863E+03   -7.3148E+04  setid=       0
 node=    68 local x,y,z forces =   -1.1641E+04    3.7144E+03   -1.1548E+05  setid=       0
 node=    69 local x,y,z forces =   -5.3843E+03    5.0381E+03   -1.5405E+05  setid=       0
 node=    70 local x,y,z forces =    9.4986E+03    6.3919E+03   -1.9287E+05  setid=       0
 node=    71 local x,y,z forces =    9.5901E+03    7.9419E+03   -2.5788E+05  setid=       0
 node=    72 local x,y,z forces =    9.4917E+04    4.4159E+03   -1.7443E+05  setid=       0
 node=    73 local x,y,z forces =    1.9549E+03   -1.1734E+03    6.9403E+03  setid=       0
 node=    74 local x,y,z forces =   -1.7024E+04   -6.8898E+02    2.6023E+03  setid=       0
 node=    75 local x,y,z forces =   -1.9875E+04    2.3646E+03   -3.6702E+04  setid=       0
 node=    76 local x,y,z forces =   -1.7820E+04    5.2579E+03   -7.3147E+04  setid=       0
 node=    77 local x,y,z forces =   -1.2740E+04    8.0973E+03   -1.1502E+05  setid=       0
 node=    78 local x,y,z forces =   -6.4838E+03    1.0907E+04   -1.5310E+05  setid=       0
 node=    79 local x,y,z forces =    8.3716E+03    1.3765E+04   -1.9144E+05  setid=       0
 node=    80 local x,y,z forces =    9.0089E+03    1.7027E+04   -2.5487E+05  setid=       0
 node=    81 local x,y,z forces =    9.3941E+04    9.4637E+03   -1.7193E+05  setid=       0
 node=    82 local x,y,z forces =    2.2138E+02   -1.7687E+03    4.0090E+03  setid=       0
 node=    83 local x,y,z forces =   -1.7961E+04   -1.0410E+03   -8.6647E+02  setid=       0
 node=    84 local x,y,z forces =   -2.1658E+04    3.5274E+03   -3.8642E+04  setid=       0
 node=    85 local x,y,z forces =   -1.9793E+04    7.7333E+03   -7.5142E+04  setid=       0
 node=    86 local x,y,z forces =   -1.4962E+04    1.1799E+04   -1.1726E+05  setid=       0
 node=    87 local x,y,z forces =   -8.7240E+03    1.5777E+04   -1.5564E+05  setid=       0
 node=    88 local x,y,z forces =    6.0932E+03    1.9824E+04   -1.9423E+05  setid=       0
 node=    89 local x,y,z forces =    7.7388E+03    2.4613E+04   -2.5577E+05  setid=       0
 node=    90 local x,y,z forces =    9.2656E+04    1.3723E+04   -1.7081E+05  setid=       0
 node=    91 local x,y,z forces =   -2.4285E+03   -2.5455E+03   -5.9896E+02  setid=       0
 node=    92 local x,y,z forces =   -1.9578E+04   -9.9733E+02   -5.4071E+03  setid=       0
 node=    93 local x,y,z forces =   -2.4807E+04    6.2886E+03   -3.9266E+04  setid=       0
 node=    94 local x,y,z forces =   -2.3144E+04    1.2794E+04   -7.4563E+04  setid=       0
 node=    95 local x,y,z forces =   -1.8592E+04    1.9232E+04   -1.1561E+05  setid=       0
 node=    96 local x,y,z forces =   -1.2384E+04    2.5474E+04   -1.5300E+05  setid=       0
 node=    97 local x,y,z forces =    2.2848E+03    3.1486E+04   -1.9083E+05  setid=       0
 node=    98 local x,y,z forces =    5.7191E+03    3.8591E+04   -2.4845E+05  setid=       0
 node=    99 local x,y,z forces =    9.0548E+04    2.1470E+04   -1.6447E+05  setid=       0
 node=   100 local x,y,z forces =   -6.1486E+03   -2.2043E+03   -5.5569E+03  setid=       0
 node=   101 local x,y,z forces =   -2.4531E+04   -6.1723E+02   -1.1677E+04  setid=       0
 node=   102 local x,y,z forces =   -3.2372E+04    5.3852E+03   -4.7515E+04  setid=       0
 node=   103 local x,y,z forces =   -3.0791E+04    1.0640E+04   -8.8798E+04  setid=       0
 node=   104 local x,y,z forces =   -2.6572E+04    1.5950E+04   -1.3566E+05  setid=       0
 node=   105 local x,y,z forces =   -2.0174E+04    2.1138E+04   -1.7883E+05  setid=       0
 node=   106 local x,y,z forces =   -5.7707E+03    2.5871E+04   -2.2284E+05  setid=       0
 node=   107 local x,y,z forces =    3.6083E+02    3.1541E+04   -2.8188E+05  setid=       0
 node=   108 local x,y,z forces =    9.3513E+04    1.7770E+04   -1.7907E+05  setid=       0
 node=   109 local x,y,z forces =   -4.1466E+03   -1.3126E+03   -3.6492E+03  setid=       0
 node=   110 local x,y,z forces =   -1.4474E+04    3.4682E+03   -8.5538E+03  setid=       0
 node=   111 local x,y,z forces =   -1.9281E+04    1.7029E+04   -3.1483E+04  setid=       0
 node=   112 local x,y,z forces =   -1.8466E+04    3.3047E+04   -5.8550E+04  setid=       0
 node=   113 local x,y,z forces =   -1.6438E+04    4.9142E+04   -8.8427E+04  setid=       0
 node=   114 local x,y,z forces =   -1.3124E+04    6.5589E+04   -1.1630E+05  setid=       0
 node=   115 local x,y,z forces =   -5.9604E+03    8.1450E+04   -1.4450E+05  setid=       0
 node=   116 local x,y,z forces =   -1.9512E+03    9.9774E+04   -1.7860E+05  setid=       0
 node=   117 local x,y,z forces =    4.9388E+04    5.5743E+04   -1.0877E+05  setid=       0
 node=  5855 local x,y,z forces =   -1.5811E+02   -1.9876E+05    0.0000E+00  setid=       0
 node=  5864 local x,y,z forces =   -3.8788E+03   -1.2342E+05    0.0000E+00  setid=       0
 node=  5873 local x,y,z forces =   -5.2008E+03   -7.0218E+04    0.0000E+00  setid=       0
 node=  5882 local x,y,z forces =   -6.5038E+03   -4.6181E+04    0.0000E+00  setid=       0
 node=  5891 local x,y,z forces =   -7.6613E+03   -2.7334E+04    0.0000E+00  setid=       0
 node=  5900 local x,y,z forces =   -8.3296E+03   -1.2842E+04    0.0000E+00  setid=       0
 node=  5909 local x,y,z forces =   -8.5854E+03    1.3970E-08    0.0000E+00  setid=       0
 node=  5918 local x,y,z forces =   -8.3296E+03    1.2842E+04    0.0000E+00  setid=       0
 node=  5927 local x,y,z forces =   -7.6613E+03    2.7334E+04    0.0000E+00  setid=       0
 node=  5936 local x,y,z forces =   -6.5038E+03    4.6181E+04    0.0000E+00  setid=       0
 node=  5945 local x,y,z forces =   -5.2008E+03    7.0218E+04    0.0000E+00  setid=       0
 node=  5954 local x,y,z forces =   -3.8788E+03    1.2342E+05    0.0000E+00  setid=       0
 node=  5963 local x,y,z forces =   -1.5811E+02    1.9876E+05    0.0000E+00  setid=       0
             force resultants   =    9.9238E+01   -3.5827E-08   -1.2715E+07
 output at time =   3.00000E-03
 node=     1 local x,y,z forces =    9.3547E+03    1.8303E+04    2.7474E+04  setid=       0
 node=     2 local x,y,z forces =   -1.9332E+04    2.5248E+04    4.2058E+04  setid=       0
 node=     3 local x,y,z forces =   -2.6765E+04    2.1383E+03    2.1009E+03  setid=       0
 node=     4 local x,y,z forces =   -2.7859E+04   -2.3407E+04   -4.1396E+04  setid=       0
 node=     5 local x,y,z forces =   -2.6246E+04   -4.9214E+04   -8.8493E+04  setid=       0
 node=     6 local x,y,z forces =   -2.2578E+04   -7.5364E+04   -1.3360E+05  setid=       0
 node=     7 local x,y,z forces =   -1.3538E+04   -1.0072E+05   -1.7834E+05  setid=       0
 node=     8 local x,y,z forces =   -6.8899E+03   -1.2851E+05   -2.2944E+05  setid=       0
 node=     9 local x,y,z forces =    6.2875E+04   -7.2790E+04   -1.4036E+05  setid=       0
 node=    10 local x,y,z forces =    1.9914E+04    8.1209E+03    4.5860E+04  setid=       0
 node=    11 local x,y,z forces =   -3.1668E+04    1.0221E+04    6.8852E+04  setid=       0
 node=    12 local x,y,z forces =   -4.3709E+04    7.3877E+02    4.6466E+03  setid=       0
 node=    13 local x,y,z forces =   -4.5953E+04   -7.5066E+03   -6.2001E+04  setid=       0
 node=    14 local x,y,z forces =   -4.2427E+04   -1.5951E+04   -1.3572E+05  setid=       0
 node=    15 local x,y,z forces =   -3.5420E+04   -2.4268E+04   -2.0574E+05  setid=       0
 node=    16 local x,y,z forces =   -1.7194E+04   -3.1969E+04   -2.7528E+05  setid=       0
 node=    17 local x,y,z forces =   -6.9150E+03   -4.1124E+04   -3.6255E+05  setid=       0
 node=    18 local x,y,z forces =    1.1957E+05   -2.3769E+04   -2.3116E+05  setid=       0
 node=    19 local x,y,z forces =    2.3803E+04    9.6801E+03    4.7995E+04  setid=       0
 node=    20 local x,y,z forces =   -2.3683E+04    1.2764E+04    6.7098E+04  setid=       0
 node=    21 local x,y,z forces =   -3.1556E+04    1.1904E+03    5.8692E+03  setid=       0
 node=    22 local x,y,z forces =   -3.3733E+04   -9.0480E+03   -5.1179E+04  setid=       0
 node=    23 local x,y,z forces =   -2.9685E+04   -1.9270E+04   -1.1563E+05  setid=       0
 node=    24 local x,y,z forces =   -2.2992E+04   -2.9294E+04   -1.7641E+05  setid=       0
 node=    25 local x,y,z forces =   -4.4045E+03   -3.9041E+04   -2.3613E+05  setid=       0
 node=    26 local x,y,z forces =    1.5634E+03   -5.0443E+04   -3.2094E+05  setid=       0
 node=    27 local x,y,z forces =    1.1689E+05   -2.8663E+04   -2.1363E+05  setid=       0
 node=    28 local x,y,z forces =    2.7883E+04    6.3723E+03    5.5831E+04  setid=       0
 node=    29 local x,y,z forces =   -2.0916E+04    8.6690E+03    7.5167E+04  setid=       0
 node=    30 local x,y,z forces =   -2.6303E+04    1.3143E+03    7.6753E+03  setid=       0
 node=    31 local x,y,z forces =   -2.8274E+04   -5.3537E+03   -5.1157E+04  setid=       0
 node=    32 local x,y,z forces =   -2.3889E+04   -1.1819E+04   -1.1729E+05  setid=       0
 node=    33 local x,y,z forces =   -1.7256E+04   -1.8197E+04   -1.7968E+05  setid=       0
 node=    34 local x,y,z forces =    1.4511E+03   -2.4705E+04   -2.4074E+05  setid=       0
 node=    35 local x,y,z forces =    4.6037E+03   -3.2291E+04   -3.3180E+05  setid=       0
 node=    36 local x,y,z forces =    1.2040E+05   -1.8362E+04   -2.2328E+05  setid=       0
 node=    37 local x,y,z forces =    3.0502E+04    4.3339E+03    5.9956E+04  setid=       0
 node=    38 local x,y,z forces =   -1.9321E+04    5.9518E+03    7.9410E+04  setid=       0
 node=    39 local x,y,z forces =   -2.3324E+04    1.0196E+03    9.3640E+03  setid=       0
 node=    40 local x,y,z forces =   -2.5048E+04   -3.5887E+03   -4.9324E+04  setid=       0
 node=    41 local x,y,z forces =   -2.0342E+04   -8.1132E+03   -1.1506E+05  setid=       0
 node=    42 local x,y,z forces =   -1.3754E+04   -1.2608E+04   -1.7698E+05  setid=       0
 node=    43 local x,y,z forces =    4.9551E+03   -1.7182E+04   -2.3770E+05  setid=       0
 node=    44 local x,y,z forces =    6.5342E+03   -2.2334E+04   -3.3167E+05  setid=       0
 node=    45 local x,y,z forces =    1.2260E+05   -1.2649E+04   -2.2563E+05  setid=       0
 node=    46 local x,y,z forces =    3.2069E+04    2.0412E+03    6.2976E+04  setid=       0
 node=    47 local x,y,z forces =   -1.8590E+04    2.8346E+03    8.2844E+04  setid=       0
 node=    48 local x,y,z forces =   -2.1869E+04    5.4617E+02    1.0496E+04  setid=       0
 node=    49 local x,y,z forces =   -2.3479E+04   -1.6020E+03   -4.9048E+04  setid=       0
 node=    50 local x,y,z forces =   -1.8587E+04   -3.7213E+03   -1.1552E+05  setid=       0
 node=    51 local x,y,z forces =   -1.2046E+04   -5.8360E+03   -1.7821E+05  setid=       0
 node=    52 local x,y,z forces =    6.6680E+03   -7.9952E+03   -2.3972E+05  setid=       0
 node=    53 local x,y,z forces =    7.3937E+03   -1.0430E+04   -3.3616E+05  setid=       0
 node=    54 local x,y,z forces =    1.2416E+05   -5.9068E+03   -2.2941E+05  setid=       0
 node=    55 local x,y,z forces =    3.2561E+04    5.1659E-10    6.3683E+04  setid=       0
 node=    56 local x,y,z forces =   -1.8351E+04    1.6371E-10    8.3599E+04  setid=       0
 node=    57 local x,y,z forces =   -2.1397E+04    9.1131E-10    1.0884E+04  setid=       0
 node=    58 local x,y,z forces =   -2.2960E+04   -7.6398E-11   -4.8572E+04  setid=       0
 node=    59 local x,y,z forces =   -1.8009E+04    2.1100E-10   -1.1491E+05  setid=       0
 node=    60 local x,y,z forces =   -1.1473E+04    8.7311E-11   -1.7743E+05  setid=       0
 node=    61 local x,y,z forces =    7.2439E+03   -3.2014E-10   -2.3881E+05  setid=       0
 node=    62 local x,y,z forces =    7.6985E+03   -1.3097E-10   -3.3572E+05  setid=       0
 node=    63 local x,y,z forces =    1.2461E+05    2.9104E-11   -2.2961E+05  setid=       0
 node=    64 local x,y,z forces =    3.2069E+04   -2.0412E+03    6.2976E+04  setid=       0
 node=    65 local x,y,z forces =   -1.8590E+04   -2.8346E+03    8.2844E+04  setid=       0
 node=    66 local x,y,z forces =   -2.1869E+04   -5.4617E+02    1.0496E+04  setid=       0
 node=    67 local x,y,z forces =   -2.3479E+04    1.6020E+03   -4.9048E+04  setid=       0
[...]
 node=    48 local x,y,z forces =   -7.2476E+04    2.8470E+04    8.4017E+05  setid=       0
 node=    49 local x,y,z forces =   -1.3765E+05    1.2101E+04    3.8517E+05  setid=       0
 node=    50 local x,y,z forces =   -1.4166E+05   -4.0473E+03   -1.0958E+05  setid=       0
 node=    51 local x,y,z forces =   -1.3179E+05   -2.0184E+04   -5.9886E+05  setid=       0
 node=    52 local x,y,z forces =   -4.4487E+04   -3.6661E+04   -1.0685E+06  setid=       0
 node=    53 local x,y,z forces =   -3.8513E+04   -5.4945E+04   -1.7117E+06  setid=       0
 node=    54 local x,y,z forces =    6.4152E+05   -3.2610E+04   -1.2235E+06  setid=       0
 node=    55 local x,y,z forces =    5.4940E+05   -4.6566E-10    1.0093E+06  setid=       0
 node=    56 local x,y,z forces =   -4.0537E+04    2.9104E-10    1.4829E+06  setid=       0
 node=    57 local x,y,z forces =   -6.8990E+04    4.3656E-10    8.3895E+05  setid=       0
 node=    58 local x,y,z forces =   -1.3372E+05   -7.2760E-12    3.8471E+05  setid=       0
 node=    59 local x,y,z forces =   -1.3725E+05    3.0559E-10   -1.0899E+05  setid=       0
 node=    60 local x,y,z forces =   -1.2737E+05    7.5670E-10   -5.9709E+05  setid=       0
 node=    61 local x,y,z forces =   -3.9984E+04    1.8626E-09   -1.0660E+06  setid=       0
 node=    62 local x,y,z forces =   -3.6004E+04    2.9104E-09   -1.7123E+06  setid=       0
 node=    63 local x,y,z forces =    6.4556E+05    1.5134E-09   -1.2271E+06  setid=       0
 node=    64 local x,y,z forces =    5.4624E+05   -2.8001E+04    1.0057E+06  setid=       0
 node=    65 local x,y,z forces =   -4.2238E+04   -4.6175E+04    1.4809E+06  setid=       0
 node=    66 local x,y,z forces =   -7.2476E+04   -2.8470E+04    8.4017E+05  setid=       0
 node=    67 local x,y,z forces =   -1.3765E+05   -1.2101E+04    3.8517E+05  setid=       0
 node=    68 local x,y,z forces =   -1.4166E+05    4.0473E+03   -1.0958E+05  setid=       0
 node=    69 local x,y,z forces =   -1.3179E+05    2.0184E+04   -5.9886E+05  setid=       0
 node=    70 local x,y,z forces =   -4.4487E+04    3.6661E+04   -1.0685E+06  setid=       0
 node=    71 local x,y,z forces =   -3.8513E+04    5.4945E+04   -1.7117E+06  setid=       0
 node=    72 local x,y,z forces =    6.4152E+05    3.2610E+04   -1.2235E+06  setid=       0
 node=    73 local x,y,z forces =    5.3427E+05   -5.9767E+04    9.8177E+05  setid=       0
 node=    74 local x,y,z forces =   -5.0026E+04   -9.8222E+04    1.4519E+06  setid=       0
 node=    75 local x,y,z forces =   -8.4929E+04   -6.0418E+04    8.2920E+05  setid=       0
 node=    76 local x,y,z forces =   -1.5043E+05   -2.5469E+04    3.8041E+05  setid=       0
 node=    77 local x,y,z forces =   -1.5500E+05    8.9077E+03   -1.0864E+05  setid=       0
 node=    78 local x,y,z forces =   -1.4397E+05    4.3263E+04   -5.9229E+05  setid=       0
 node=    79 local x,y,z forces =   -5.6095E+04    7.8288E+04   -1.0557E+06  setid=       0
 node=    80 local x,y,z forces =   -4.2902E+04    1.1729E+05   -1.6808E+06  setid=       0
 node=    81 local x,y,z forces =    6.2981E+05    6.9665E+04   -1.1958E+06  setid=       0
 node=    82 local x,y,z forces =    5.1722E+05   -8.7229E+04    9.5749E+05  setid=       0
 node=    83 local x,y,z forces =   -6.3307E+04   -1.4303E+05    1.4333E+06  setid=       0
 node=    84 local x,y,z forces =   -1.0809E+05   -8.6694E+04    8.3178E+05  setid=       0
 node=    85 local x,y,z forces =   -1.7553E+05   -3.6342E+04    3.8149E+05  setid=       0
 node=    86 local x,y,z forces =   -1.8203E+05    1.2684E+04   -1.1063E+05  setid=       0
 node=    87 local x,y,z forces =   -1.7021E+05    6.1623E+04   -5.9765E+05  setid=       0
 node=    88 local x,y,z forces =   -8.2325E+04    1.1177E+05   -1.0629E+06  setid=       0
 node=    89 local x,y,z forces =   -5.6743E+04    1.6928E+05   -1.6676E+06  setid=       0
 node=    90 local x,y,z forces =    6.1022E+05    1.0141E+05   -1.1702E+06  setid=       0
 node=    91 local x,y,z forces =    4.8719E+05   -1.3473E+05    8.9546E+05  setid=       0
 node=    92 local x,y,z forces =   -9.1502E+04   -2.1958E+05    1.3640E+06  setid=       0
 node=    93 local x,y,z forces =   -1.5260E+05   -1.3250E+05    8.1053E+05  setid=       0
 node=    94 local x,y,z forces =   -2.1957E+05   -5.6143E+04    3.7189E+05  setid=       0
 node=    95 local x,y,z forces =   -2.2609E+05    2.1143E+04   -1.0763E+05  setid=       0
 node=    96 local x,y,z forces =   -2.1145E+05    9.8118E+04   -5.8260E+05  setid=       0
 node=    97 local x,y,z forces =   -1.2211E+05    1.7409E+05   -1.0357E+06  setid=       0
 node=    98 local x,y,z forces =   -7.3112E+04    2.6193E+05   -1.5942E+06  setid=       0
 node=    99 local x,y,z forces =    5.8278E+05    1.5733E+05   -1.0994E+06  setid=       0
 node=   100 local x,y,z forces =    4.8452E+05   -1.1072E+05    9.3966E+05  setid=       0
 node=   101 local x,y,z forces =   -1.5018E+05   -1.8282E+05    1.5032E+06  setid=       0
 node=   102 local x,y,z forces =   -2.4057E+05   -1.1175E+05    9.3026E+05  setid=       0
 node=   103 local x,y,z forces =   -3.1059E+05   -4.9556E+04    4.1970E+05  setid=       0
 node=   104 local x,y,z forces =   -3.2331E+05    1.4604E+04   -1.2951E+05  setid=       0
 node=   105 local x,y,z forces =   -3.0870E+05    7.8275E+04   -6.7544E+05  setid=       0
 node=   106 local x,y,z forces =   -2.2431E+05    1.3768E+05   -1.2037E+06  setid=       0
 node=   107 local x,y,z forces =   -1.4035E+05    2.0880E+05   -1.7846E+06  setid=       0
 node=   108 local x,y,z forces =    5.7583E+05    1.3244E+05   -1.1714E+06  setid=       0
 node=   109 local x,y,z forces =    2.5036E+05   -3.1935E+05    5.6649E+05  setid=       0
 node=   110 local x,y,z forces =   -1.0094E+05   -5.3738E+05    9.3880E+05  setid=       0
 node=   111 local x,y,z forces =   -1.5540E+05   -3.4203E+05    5.9508E+05  setid=       0
 node=   112 local x,y,z forces =   -1.9150E+05   -1.4645E+05    2.6456E+05  setid=       0
 node=   113 local x,y,z forces =   -1.9990E+05    5.1759E+04   -8.7130E+04  setid=       0
 node=   114 local x,y,z forces =   -1.9234E+05    2.4954E+05   -4.3813E+05  setid=       0
 node=   115 local x,y,z forces =   -1.5209E+05    4.4196E+05   -7.8061E+05  setid=       0
 node=   116 local x,y,z forces =   -9.7144E+04    6.3436E+05   -1.1311E+06  setid=       0
 node=   117 local x,y,z forces =    2.9838E+05    3.7456E+05   -7.1286E+05  setid=       0
 node=  5855 local x,y,z forces =   -5.5940E+03   -1.9106E+05    0.0000E+00  setid=       0
 node=  5864 local x,y,z forces =   -5.1180E+04   -1.1891E+05    0.0000E+00  setid=       0
 node=  5873 local x,y,z forces =   -6.6017E+04   -6.7483E+04    0.0000E+00  setid=       0
 node=  5882 local x,y,z forces =   -8.0685E+04   -4.4419E+04    0.0000E+00  setid=       0
 node=  5891 local x,y,z forces =   -9.3726E+04   -2.6272E+04    0.0000E+00  setid=       0
 node=  5900 local x,y,z forces =   -1.0125E+05   -1.2345E+04    0.0000E+00  setid=       0
 node=  5909 local x,y,z forces =   -1.0413E+05    2.6484E-09    0.0000E+00  setid=       0
 node=  5918 local x,y,z forces =   -1.0125E+05    1.2345E+04    0.0000E+00  setid=       0
 node=  5927 local x,y,z forces =   -9.3726E+04    2.6272E+04    0.0000E+00  setid=       0
 node=  5936 local x,y,z forces =   -8.0685E+04    4.4419E+04    0.0000E+00  setid=       0
 node=  5945 local x,y,z forces =   -6.6017E+04    6.7483E+04    0.0000E+00  setid=       0
 node=  5954 local x,y,z forces =   -5.1180E+04    1.1891E+05    0.0000E+00  setid=       0
 node=  5963 local x,y,z forces =   -5.5940E+03    1.9106E+05    0.0000E+00  setid=       0
             force resultants   =   -1.5639E+03   -1.6211E-08   -1.2855E+07
 output at time =   5.00000E-02
 node=     1 local x,y,z forces =    2.5183E+05    3.2118E+05    5.6970E+05  setid=       0
 node=     2 local x,y,z forces =   -1.0141E+05    5.4052E+05    9.4427E+05  setid=       0
 node=     3 local x,y,z forces =   -1.5617E+05    3.4411E+05    5.9868E+05  setid=       0
 node=     4 local x,y,z forces =   -1.9248E+05    1.4747E+05    2.6643E+05  setid=       0
 node=     5 local x,y,z forces =   -2.0096E+05   -5.1786E+04   -8.7115E+04  setid=       0
 node=     6 local x,y,z forces =   -1.9338E+05   -2.5061E+05   -4.3998E+05  setid=       0
 node=     7 local x,y,z forces =   -1.5296E+05   -4.4404E+05   -7.8431E+05  setid=       0
 node=     8 local x,y,z forces =   -9.7707E+04   -6.3743E+05   -1.1366E+06  setid=       0
 node=     9 local x,y,z forces =    2.9980E+05   -3.7640E+05   -7.1644E+05  setid=       0
 node=    10 local x,y,z forces =    4.8736E+05    1.1134E+05    9.4501E+05  setid=       0
 node=    11 local x,y,z forces =   -1.5085E+05    1.8389E+05    1.5120E+06  setid=       0
 node=    12 local x,y,z forces =   -2.4175E+05    1.1244E+05    9.3590E+05  setid=       0
 node=    13 local x,y,z forces =   -3.1218E+05    4.9912E+04    4.2266E+05  setid=       0
 node=    14 local x,y,z forces =   -3.2502E+05   -1.4589E+04   -1.2945E+05  setid=       0
 node=    15 local x,y,z forces =   -3.1038E+05   -7.8598E+04   -6.7827E+05  setid=       0
 node=    16 local x,y,z forces =   -2.2560E+05   -1.3831E+05   -1.2094E+06  setid=       0
 node=    17 local x,y,z forces =   -1.4118E+05   -2.0982E+05   -1.7933E+06  setid=       0
 node=    18 local x,y,z forces =    5.7859E+05   -1.3311E+05   -1.1773E+06  setid=       0
 node=    19 local x,y,z forces =    4.9001E+05    1.3548E+05    9.0055E+05  setid=       0
 node=    20 local x,y,z forces =   -9.1879E+04    2.2083E+05    1.3720E+06  setid=       0
 node=    21 local x,y,z forces =   -1.5335E+05    1.3329E+05    8.1546E+05  setid=       0
 node=    22 local x,y,z forces =   -2.2069E+05    5.6532E+04    3.7451E+05  setid=       0
 node=    23 local x,y,z forces =   -2.2729E+05   -2.1163E+04   -1.0754E+05  setid=       0
 node=    24 local x,y,z forces =   -2.1260E+05   -9.8546E+04   -5.8504E+05  setid=       0
 node=    25 local x,y,z forces =   -1.2282E+05   -1.7493E+05   -1.0406E+06  setid=       0
 node=    26 local x,y,z forces =   -7.3564E+04   -2.6323E+05   -1.6019E+06  setid=       0
 node=    27 local x,y,z forces =    5.8562E+05   -1.5813E+05   -1.1049E+06  setid=       0
 node=    28 local x,y,z forces =    5.2019E+05    8.7718E+04    9.6290E+05  setid=       0
 node=    29 local x,y,z forces =   -6.3500E+04    1.4385E+05    1.4417E+06  setid=       0
 node=    30 local x,y,z forces =   -1.0859E+05    8.7212E+04    8.3682E+05  setid=       0
 node=    31 local x,y,z forces =   -1.7641E+05    3.6593E+04    3.8417E+05  setid=       0
 node=    32 local x,y,z forces =   -1.8299E+05   -1.2693E+04   -1.1056E+05  setid=       0
 node=    33 local x,y,z forces =   -1.7115E+05   -6.1892E+04   -6.0016E+05  setid=       0
 node=    34 local x,y,z forces =   -8.2846E+04   -1.1230E+05   -1.0679E+06  setid=       0
 node=    35 local x,y,z forces =   -5.7140E+04   -1.7013E+05   -1.6757E+06  setid=       0
 node=    36 local x,y,z forces =    6.1320E+05   -1.0192E+05   -1.1761E+06  setid=       0
 node=    37 local x,y,z forces =    5.3732E+05    6.0102E+04    9.8729E+05  setid=       0
 node=    38 local x,y,z forces =   -5.0147E+04    9.8778E+04    1.4603E+06  setid=       0
 node=    39 local x,y,z forces =   -8.5310E+04    6.0777E+04    8.3422E+05  setid=       0
 node=    40 local x,y,z forces =   -1.5118E+05    2.5643E+04    3.8306E+05  setid=       0
 node=    41 local x,y,z forces =   -1.5582E+05   -8.9162E+03   -1.0857E+05  setid=       0
 node=    42 local x,y,z forces =   -1.4477E+05   -4.3454E+04   -5.9479E+05  setid=       0
 node=    43 local x,y,z forces =   -5.6472E+04   -7.8665E+04   -1.0607E+06  setid=       0
 node=    44 local x,y,z forces =   -4.3225E+04   -1.1787E+05   -1.6890E+06  setid=       0
 node=    45 local x,y,z forces =    6.3290E+05   -7.0017E+04   -1.2018E+06  setid=       0
 node=    46 local x,y,z forces =    5.4935E+05    2.8158E+04    1.0114E+06  setid=       0
 node=    47 local x,y,z forces =   -4.2308E+04    4.6436E+04    1.4894E+06  setid=       0
 node=    48 local x,y,z forces =   -7.2789E+04    2.8639E+04    8.4524E+05  setid=       0
 node=    49 local x,y,z forces =   -1.3833E+05    1.2184E+04    3.8785E+05  setid=       0
 node=    50 local x,y,z forces =   -1.4241E+05   -4.0507E+03   -1.0951E+05  setid=       0
 node=    51 local x,y,z forces =   -1.3253E+05   -2.0273E+04   -6.0140E+05  setid=       0
 node=    52 local x,y,z forces =   -4.4807E+04   -3.6838E+04   -1.0736E+06  setid=       0
 node=    53 local x,y,z forces =   -3.8823E+04   -5.5219E+04   -1.7200E+06  setid=       0
 node=    54 local x,y,z forces =    6.4467E+05   -3.2775E+04   -1.2297E+06  setid=       0
 node=    55 local x,y,z forces =    5.5253E+05   -8.1491E-10    1.0150E+06  setid=       0
 node=    56 local x,y,z forces =   -4.0599E+04   -5.2387E-10    1.4915E+06  setid=       0
 node=    57 local x,y,z forces =   -6.9286E+04   -5.8208E-11    8.4402E+05  setid=       0
 node=    58 local x,y,z forces =   -1.3438E+05   -8.5129E-10    3.8738E+05  setid=       0
 node=    59 local x,y,z forces =   -1.3798E+05   -1.3970E-09   -1.0892E+05  setid=       0
 node=    60 local x,y,z forces =   -1.2808E+05   -1.7462E-09   -5.9962E+05  setid=       0
 node=    61 local x,y,z forces =   -4.0278E+04   -1.6298E-09   -1.0710E+06  setid=       0
 node=    62 local x,y,z forces =   -3.6298E+04   -2.3283E-09   -1.7207E+06  setid=       0
 node=    63 local x,y,z forces =    6.4874E+05   -1.1642E-09   -1.2333E+06  setid=       0
 node=    64 local x,y,z forces =    5.4935E+05   -2.8158E+04    1.0114E+06  setid=       0
 node=    65 local x,y,z forces =   -4.2308E+04   -4.6436E+04    1.4894E+06  setid=       0
 node=    66 local x,y,z forces =   -7.2789E+04   -2.8639E+04    8.4524E+05  setid=       0
 node=    67 local x,y,z forces =   -1.3833E+05   -1.2184E+04    3.8785E+05  setid=       0
 node=    68 local x,y,z forces =   -1.4241E+05    4.0507E+03   -1.0951E+05  setid=       0
 node=    69 local x,y,z forces =   -1.3253E+05    2.0273E+04   -6.0140E+05  setid=       0
 node=    70 local x,y,z forces =   -4.4807E+04    3.6838E+04   -1.0736E+06  setid=       0
 node=    71 local x,y,z forces =   -3.8823E+04    5.5219E+04   -1.7200E+06  setid=       0
 node=    72 local x,y,z forces =    6.4467E+05    3.2775E+04   -1.2297E+06  setid=       0
 node=    73 local x,y,z forces =    5.3732E+05   -6.0102E+04    9.8729E+05  setid=       0
 node=    74 local x,y,z forces =   -5.0147E+04   -9.8778E+04    1.4603E+06  setid=       0
 node=    75 local x,y,z forces =   -8.5310E+04   -6.0777E+04    8.3422E+05  setid=       0
 node=    76 local x,y,z forces =   -1.5118E+05   -2.5643E+04    3.8306E+05  setid=       0
 node=    77 local x,y,z forces =   -1.5582E+05    8.9162E+03   -1.0857E+05  setid=       0
 node=    78 local x,y,z forces =   -1.4477E+05    4.3454E+04   -5.9479E+05  setid=       0
 node=    79 local x,y,z forces =   -5.6472E+04    7.8665E+04   -1.0607E+06  setid=       0
 node=    80 local x,y,z forces =   -4.3225E+04    1.1787E+05   -1.6890E+06  setid=       0
 node=    81 local x,y,z forces =    6.3290E+05    7.0017E+04   -1.2018E+06  setid=       0
 node=    82 local x,y,z forces =    5.2019E+05   -8.7718E+04    9.6290E+05  setid=       0
 node=    83 local x,y,z forces =   -6.3500E+04   -1.4385E+05    1.4417E+06  setid=       0
 node=    84 local x,y,z forces =   -1.0859E+05   -8.7212E+04    8.3682E+05  setid=       0
 node=    85 local x,y,z forces =   -1.7641E+05   -3.6593E+04    3.8417E+05  setid=       0
 node=    86 local x,y,z forces =   -1.8299E+05    1.2693E+04   -1.1056E+05  setid=       0
 node=    87 local x,y,z forces =   -1.7115E+05    6.1892E+04   -6.0016E+05  setid=       0
 node=    88 local x,y,z forces =   -8.2846E+04    1.1230E+05   -1.0679E+06  setid=       0
 node=    89 local x,y,z forces =   -5.7140E+04    1.7013E+05   -1.6757E+06  setid=       0
 node=    90 local x,y,z forces =    6.1320E+05    1.0192E+05   -1.1761E+06  setid=       0
 node=    91 local x,y,z forces =    4.9001E+05   -1.3548E+05    9.0055E+05  setid=       0
 node=    92 local x,y,z forces =   -9.1879E+04   -2.2083E+05    1.3720E+06  setid=       0
 node=    93 local x,y,z forces =   -1.5335E+05   -1.3329E+05    8.1546E+05  setid=       0
 node=    94 local x,y,z forces =   -2.2069E+05   -5.6532E+04    3.7451E+05  setid=       0
 node=    95 local x,y,z forces =   -2.2729E+05    2.1163E+04   -1.0754E+05  setid=       0
 node=    96 local x,y,z forces =   -2.1260E+05    9.8546E+04   -5.8504E+05  setid=       0
 node=    97 local x,y,z forces =   -1.2282E+05    1.7493E+05   -1.0406E+06  setid=       0
 node=    98 local x,y,z forces =   -7.3564E+04    2.6323E+05   -1.6019E+06  setid=       0
 node=    99 local x,y,z forces =    5.8562E+05    1.5813E+05   -1.1049E+06  setid=       0
 node=   100 local x,y,z forces =    4.8736E+05   -1.1134E+05    9.4501E+05  setid=       0
 node=   101 local x,y,z forces =   -1.5085E+05   -1.8389E+05    1.5120E+06  setid=       0
 node=   102 local x,y,z forces =   -2.4175E+05   -1.1244E+05    9.3590E+05  setid=       0
 node=   103 local x,y,z forces =   -3.1218E+05   -4.9912E+04    4.2266E+05  setid=       0
 node=   104 local x,y,z forces =   -3.2502E+05    1.4589E+04   -1.2945E+05  setid=       0
 node=   105 local x,y,z forces =   -3.1038E+05    7.8598E+04   -6.7827E+05  setid=       0
 node=   106 local x,y,z forces =   -2.2560E+05    1.3831E+05   -1.2094E+06  setid=       0
 node=   107 local x,y,z forces =   -1.4118E+05    2.0982E+05   -1.7933E+06  setid=       0
 node=   108 local x,y,z forces =    5.7859E+05    1.3311E+05   -1.1773E+06  setid=       0
 node=   109 local x,y,z forces =    2.5183E+05   -3.2118E+05    5.6970E+05  setid=       0
 node=   110 local x,y,z forces =   -1.0141E+05   -5.4052E+05    9.4427E+05  setid=       0
 node=   111 local x,y,z forces =   -1.5617E+05   -3.4411E+05    5.9868E+05  setid=       0
 node=   112 local x,y,z forces =   -1.9248E+05   -1.4747E+05    2.6643E+05  setid=       0
 node=   113 local x,y,z forces =   -2.0096E+05    5.1786E+04   -8.7115E+04  setid=       0
 node=   114 local x,y,z forces =   -1.9338E+05    2.5061E+05   -4.3998E+05  setid=       0
 node=   115 local x,y,z forces =   -1.5296E+05    4.4404E+05   -7.8431E+05  setid=       0
 node=   116 local x,y,z forces =   -9.7707E+04    6.3743E+05   -1.1366E+06  setid=       0
 node=   117 local x,y,z forces =    2.9980E+05    3.7640E+05   -7.1644E+05  setid=       0
 node=  5855 local x,y,z forces =   -5.6619E+03   -1.9098E+05    0.0000E+00  setid=       0
 node=  5864 local x,y,z forces =   -5.1490E+04   -1.1886E+05    0.0000E+00  setid=       0
 node=  5873 local x,y,z forces =   -6.6392E+04   -6.7452E+04    0.0000E+00  setid=       0
 node=  5882 local x,y,z forces =   -8.1124E+04   -4.4398E+04    0.0000E+00  setid=       0
 node=  5891 local x,y,z forces =   -9.4222E+04   -2.6260E+04    0.0000E+00  setid=       0
 node=  5900 local x,y,z forces =   -1.0178E+05   -1.2339E+04    0.0000E+00  setid=       0
 node=  5909 local x,y,z forces =   -1.0467E+05   -2.3138E-09    0.0000E+00  setid=       0
 node=  5918 local x,y,z forces =   -1.0178E+05    1.2339E+04    0.0000E+00  setid=       0
 node=  5927 local x,y,z forces =   -9.4222E+04    2.6260E+04    0.0000E+00  setid=       0
 node=  5936 local x,y,z forces =   -8.1124E+04    4.4398E+04    0.0000E+00  setid=       0
 node=  5945 local x,y,z forces =   -6.6392E+04    6.7452E+04    0.0000E+00  setid=       0
 node=  5954 local x,y,z forces =   -5.1490E+04    1.1886E+05    0.0000E+00  setid=       0
 node=  5963 local x,y,z forces =   -5.6619E+03    1.9098E+05    0.0000E+00  setid=       0
             force resultants   =   -1.5371E+03    4.3598E-08   -1.2856E+07
