 400x600                                                                 
                         ls-dyna smp.123264 d           date 01/12/2018

{BEGIN LEGEND}
 Entity #        Title
        0     bottom                                                                
        0     top                                                                   
        0     middle                                                                
{END LEGEND}

 single point constraint forces

 output at time =   0.00000E+00
 node=     1 local x,y,z forces =    0.0000E+00    0.0000E+00    0.0000E+00  setid=       0
 node=     2 local x,y,z forces =    0.0000E+00    0.0000E+00    0.0000E+00  setid=       0
 node=     3 local x,y,z forces =    0.0000E+00    0.0000E+00    0.0000E+00  setid=       0
 node=     4 local x,y,z forces =    0.0000E+00    0.0000E+00    0.0000E+00  setid=       0
 node=     5 local x,y,z forces =    0.0000E+00    0.0000E+00    0.0000E+00  setid=       0
 node=     6 local x,y,z forces =    0.0000E+00    0.0000E+00    0.0000E+00  setid=       0
 node=     7 local x,y,z forces =    0.0000E+00    0.0000E+00    0.0000E+00  setid=       0
 node=     8 local x,y,z forces =    0.0000E+00    0.0000E+00    0.0000E+00  setid=       0
 node=     9 local x,y,z forces =    0.0000E+00    0.0000E+00    0.0000E+00  setid=       0
 node=    10 local x,y,z forces =    0.0000E+00    0.0000E+00    0.0000E+00  setid=       0
 node=    11 local x,y,z forces =    0.0000E+00    0.0000E+00    0.0000E+00  setid=       0
 node=    12 local x,y,z forces =    0.0000E+00    0.0000E+00    0.0000E+00  setid=       0
 node=    13 local x,y,z forces =    0.0000E+00    0.0000E+00    0.0000E+00  setid=       0
 node=    14 local x,y,z forces =    0.0000E+00    0.0000E+00    0.0000E+00  setid=       0
 node=    15 local x,y,z forces =    0.0000E+00    0.0000E+00    0.0000E+00  setid=       0
 node=    16 local x,y,z forces =    0.0000E+00    0.0000E+00    0.0000E+00  setid=       0
 node=    17 local x,y,z forces =    0.0000E+00    0.0000E+00    0.0000E+00  setid=       0
 node=    18 local x,y,z forces =    0.0000E+00    0.0000E+00    0.0000E+00  setid=       0
 node=    19 local x,y,z forces =    0.0000E+00    0.0000E+00    0.0000E+00  setid=       0
 node=    20 local x,y,z forces =    0.0000E+00    0.0000E+00    0.0000E+00  setid=       0
 node=    21 local x,y,z forces =    0.0000E+00    0.0000E+00    0.0000E+00  setid=       0
 node=    22 local x,y,z forces =    0.0000E+00    0.0000E+00    0.0000E+00  setid=       0
 node=    23 local x,y,z forces =    0.0000E+00    0.0000E+00    0.0000E+00  setid=       0
 node=    24 local x,y,z forces =    0.0000E+00    0.0000E+00    0.0000E+00  setid=       0
 node=    25 local x,y,z forces =    0.0000E+00    0.0000E+00    0.0000E+00  setid=       0
 node=    26 local x,y,z forces =    0.0000E+00    0.0000E+00    0.0000E+00  setid=       0
 node=    27 local x,y,z forces =    0.0000E+00    0.0000E+00    0.0000E+00  setid=       0
 node=    28 local x,y,z forces =    0.0000E+00    0.0000E+00    0.0000E+00  setid=       0
 node=    29 local x,y,z forces =    0.0000E+00    0.0000E+00    0.0000E+00  setid=       0
 node=    30 local x,y,z forces =    0.0000E+00    0.0000E+00    0.0000E+00  setid=       0
 node=    31 local x,y,z forces =    0.0000E+00    0.0000E+00    0.0000E+00  setid=       0
 node=    32 local x,y,z forces =    0.0000E+00    0.0000E+00    0.0000E+00  setid=       0
 node=    33 local x,y,z forces =    0.0000E+00    0.0000E+00    0.0000E+00  setid=       0
 node=    34 local x,y,z forces =    0.0000E+00    0.0000E+00    0.0000E+00  setid=       0
 node=    35 local x,y,z forces =    0.0000E+00    0.0000E+00    0.0000E+00  setid=       0
 node=    36 local x,y,z forces =    0.0000E+00    0.0000E+00    0.0000E+00  setid=       0
 node=    37 local x,y,z forces =    0.0000E+00    0.0000E+00    0.0000E+00  setid=       0
 node=    38 local x,y,z forces =    0.0000E+00    0.0000E+00    0.0000E+00  setid=       0
 node=    39 local x,y,z forces =    0.0000E+00    0.0000E+00    0.0000E+00  setid=       0
 node=    40 local x,y,z forces =    0.0000E+00    0.0000E+00    0.0000E+00  setid=       0
 node=    41 local x,y,z forces =    0.0000E+00    0.0000E+00    0.0000E+00  setid=       0
 node=    42 local x,y,z forces =    0.0000E+00    0.0000E+00    0.0000E+00  setid=       0
 node=    43 local x,y,z forces =    0.0000E+00    0.0000E+00    0.0000E+00  setid=       0
 node=    44 local x,y,z forces =    0.0000E+00    0.0000E+00    0.0000E+00  setid=       0
 node=    45 local x,y,z forces =    0.0000E+00    0.0000E+00    0.0000E+00  setid=       0
 node=    46 local x,y,z forces =    0.0000E+00    0.0000E+00    0.0000E+00  setid=       0
 node=    47 local x,y,z forces =    0.0000E+00    0.0000E+00    0.0000E+00  setid=       0
 node=    48 local x,y,z forces =    0.0000E+00    0.0000E+00    0.0000E+00  setid=       0
 node=    49 local x,y,z forces =    0.0000E+00    0.0000E+00    0.0000E+00  setid=       0
 node=    50 local x,y,z forces =    0.0000E+00    0.0000E+00    0.0000E+00  setid=       0
 node=    51 local x,y,z forces =    0.0000E+00    0.0000E+00    0.0000E+00  setid=       0
 node=    52 local x,y,z forces =    0.0000E+00    0.0000E+00    0.0000E+00  setid=       0
 node=    53 local x,y,z forces =    0.0000E+00    0.0000E+00    0.0000E+00  setid=       0
 node=    54 local x,y,z forces =    0.0000E+00    0.0000E+00    0.0000E+00  setid=       0
 node=    55 local x,y,z forces =    0.0000E+00    0.0000E+00    0.0000E+00  setid=       0
 node=    56 local x,y,z forces =    0.0000E+00    0.0000E+00    0.0000E+00  setid=       0
 node=    57 local x,y,z forces =    0.0000E+00    0.0000E+00    0.0000E+00  setid=       0
 node=    58 local x,y,z forces =    0.0000E+00    0.0000E+00    0.0000E+00  setid=       0
 node=    59 local x,y,z forces =    0.0000E+00    0.0000E+00    0.0000E+00  setid=       0
 node=    60 local x,y,z forces =    0.0000E+00    0.0000E+00    0.0000E+00  setid=       0
 node=    61 local x,y,z forces =    0.0000E+00    0.0000E+00    0.0000E+00  setid=       0
 node=    62 local x,y,z forces =    0.0000E+00    0.0000E+00    0.0000E+00  setid=       0
 node=    63 local x,y,z forces =    0.0000E+00    0.0000E+00    0.0000E+00  setid=       0
 node=    64 local x,y,z forces =    0.0000E+00    0.0000E+00    0.0000E+00  setid=       0
 node=    65 local x,y,z forces =    0.0000E+00    0.0000E+00    0.0000E+00  setid=       0
 node=    66 local x,y,z forces =    0.0000E+00    0.0000E+00    0.0000E+00  setid=       0
 node=    67 local x,y,z forces =    0.0000E+00    0.0000E+00    0.0000E+00  setid=       0
 node=    68 local x,y,z forces =    0.0000E+00    0.0000E+00    0.0000E+00  setid=       0
 node=    69 local x,y,z forces =    0.0000E+00    0.0000E+00    0.0000E+00  setid=       0
 node=    70 local x,y,z forces =    0.0000E+00    0.0000E+00    0.0000E+00  setid=       0
 node=    71 local x,y,z forces =    0.0000E+00    0.0000E+00    0.0000E+00  setid=       0
 node=    72 local x,y,z forces =    0.0000E+00    0.0000E+00    0.0000E+00  setid=       0
 node=    73 local x,y,z forces =    0.0000E+00    0.0000E+00    0.0000E+00  setid=       0
 node=    74 local x,y,z forces =    0.0000E+00    0.0000E+00    0.0000E+00  setid=       0
 node=    75 local x,y,z forces =    0.0000E+00    0.0000E+00    0.0000E+00  setid=       0
 node=    76 local x,y,z forces =    0.0000E+00    0.0000E+00    0.0000E+00  setid=       0
 node=    77 local x,y,z forces =    0.0000E+00    0.0000E+00    0.0000E+00  setid=       0
 node=    78 local x,y,z forces =    0.0000E+00    0.0000E+00    0.0000E+00  setid=       0
 node=    79 local x,y,z forces =    0.0000E+00    0.0000E+00    0.0000E+00  setid=       0
 node=    80 local x,y,z forces =    0.0000E+00    0.0000E+00    0.0000E+00  setid=       0
 node=    81 local x,y,z forces =    0.0000E+00    0.0000E+00    0.0000E+00  setid=       0
 node=    82 local x,y,z forces =    0.0000E+00    0.0000E+00    0.0000E+00  setid=       0
 node=    83 local x,y,z forces =    0.0000E+00    0.0000E+00    0.0000E+00  setid=       0
 node=    84 local x,y,z forces =    0.0000E+00    0.0000E+00    0.0000E+00  setid=       0
 node=    85 local x,y,z forces =    0.0000E+00    0.0000E+00    0.0000E+00  setid=       0
 node=    86 local x,y,z forces =    0.0000E+00    0.0000E+00    0.0000E+00  setid=       0
 node=    87 local x,y,z forces =    0.0000E+00    0.0000E+00    0.0000E+00  setid=       0
 node=    88 local x,y,z forces =    0.0000E+00    0.0000E+00    0.0000E+00  setid=       0
 node=    89 local x,y,z forces =    0.0000E+00    0.0000E+00    0.0000E+00  setid=       0
 node=    90 local x,y,z forces =    0.0000E+00    0.0000E+00    0.0000E+00  setid=       0
 node=    91 local x,y,z forces =    0.0000E+00    0.0000E+00    0.0000E+00  setid=       0
 node=    92 local x,y,z forces =    0.0000E+00    0.0000E+00    0.0000E+00  setid=       0
 node=    93 local x,y,z forces =    0.0000E+00    0.0000E+00    0.0000E+00  setid=       0
 node=    94 local x,y,z forces =    0.0000E+00    0.0000E+00    0.0000E+00  setid=       0
 node=    95 local x,y,z forces =    0.0000E+00    0.0000E+00    0.0000E+00  setid=       0
 node=    96 local x,y,z forces =    0.0000E+00    0.0000E+00    0.0000E+00  setid=       0
 node=    97 local x,y,z forces =    0.0000E+00    0.0000E+00    0.0000E+00  setid=       0
 node=    98 local x,y,z forces =    0.0000E+00    0.0000E+00    0.0000E+00  setid=       0
 node=    99 local x,y,z forces =    0.0000E+00    0.0000E+00    0.0000E+00  setid=       0
 node=   100 local x,y,z forces =    0.0000E+00    0.0000E+00    0.0000E+00  setid=       0
 node=   101 local x,y,z forces =    0.0000E+00    0.0000E+00    0.0000E+00  setid=       0
 node=   102 local x,y,z forces =    0.0000E+00    0.0000E+00    0.0000E+00  setid=       0
 node=   103 local x,y,z forces =    0.0000E+00    0.0000E+00    0.0000E+00  setid=       0
 node=   104 local x,y,z forces =    0.0000E+00    0.0000E+00    0.0000E+00  setid=       0
 node=   105 local x,y,z forces =    0.0000E+00    0.0000E+00    0.0000E+00  setid=       0
 node=   106 local x,y,z forces =    0.0000E+00    0.0000E+00    0.0000E+00  setid=       0
 node=   107 local x,y,z forces =    0.0000E+00    0.0000E+00    0.0000E+00  setid=       0
 node=   108 local x,y,z forces =    0.0000E+00    0.0000E+00    0.0000E+00  setid=       0
 node=   109 local x,y,z forces =    0.0000E+00    0.0000E+00    0.0000E+00  setid=       0
 node=   110 local x,y,z forces =    0.0000E+00    0.0000E+00    0.0000E+00  setid=       0
 node=   111 local x,y,z forces =    0.0000E+00    0.0000E+00    0.0000E+00  setid=       0
 node=   112 local x,y,z forces =    0.0000E+00    0.0000E+00    0.0000E+00  setid=       0
 node=   113 local x,y,z forces =    0.0000E+00    0.0000E+00    0.0000E+00  setid=       0
 node=   114 local x,y,z forces =    0.0000E+00    0.0000E+00    0.0000E+00  setid=       0
 node=   115 local x,y,z forces =    0.0000E+00    0.0000E+00    0.0000E+00  setid=       0
 node=   116 local x,y,z forces =    0.0000E+00    0.0000E+00    0.0000E+00  setid=       0
 node=   117 local x,y,z forces =    0.0000E+00    0.0000E+00    0.0000E+00  setid=       0
 node=  2863 local x,y,z forces =    0.0000E+00    0.0000E+00    0.0000E+00  setid=       0
 node=  2871 local x,y,z forces =    0.0000E+00    0.0000E+00    0.0000E+00  setid=       0
 node=  2980 local x,y,z forces =    0.0000E+00    0.0000E+00    0.0000E+00  setid=       0
 node=  2988 local x,y,z forces =    0.0000E+00    0.0000E+00    0.0000E+00  setid=       0
 node=  3097 local x,y,z forces =    0.0000E+00    0.0000E+00    0.0000E+00  setid=       0
 node=  3105 local x,y,z forces =    0.0000E+00    0.0000E+00    0.0000E+00  setid=       0
 node=  5851 local x,y,z forces =    0.0000E+00    0.0000E+00    0.0000E+00  setid=       0
 node=  5852 local x,y,z forces =    0.0000E+00    0.0000E+00    0.0000E+00  setid=       0
 node=  5853 local x,y,z forces =    0.0000E+00    0.0000E+00    0.0000E+00  setid=       0
 node=  5854 local x,y,z forces =    0.0000E+00    0.0000E+00    0.0000E+00  setid=       0
 node=  5855 local x,y,z forces =    0.0000E+00    0.0000E+00    0.0000E+00  setid=       0
 node=  5856 local x,y,z forces =    0.0000E+00    0.0000E+00    0.0000E+00  setid=       0
 node=  5857 local x,y,z forces =    0.0000E+00    0.0000E+00    0.0000E+00  setid=       0
 node=  5858 local x,y,z forces =    0.0000E+00    0.0000E+00    0.0000E+00  setid=       0
 node=  5859 local x,y,z forces =    0.0000E+00    0.0000E+00    0.0000E+00  setid=       0
 node=  5860 local x,y,z forces =    0.0000E+00    0.0000E+00    0.0000E+00  setid=       0
 node=  5861 local x,y,z forces =    0.0000E+00    0.0000E+00    0.0000E+00  setid=       0
 node=  5862 local x,y,z forces =    0.0000E+00    0.0000E+00    0.0000E+00  setid=       0
 node=  5863 local x,y,z forces =    0.0000E+00    0.0000E+00    0.0000E+00  setid=       0
 node=  5864 local x,y,z forces =    0.0000E+00    0.0000E+00    0.0000E+00  setid=       0
 node=  5865 local x,y,z forces =    0.0000E+00    0.0000E+00    0.0000E+00  setid=       0
 node=  5866 local x,y,z forces =    0.0000E+00    0.0000E+00    0.0000E+00  setid=       0
 node=  5867 local x,y,z forces =    0.0000E+00    0.0000E+00    0.0000E+00  setid=       0
 node=  5868 local x,y,z forces =    0.0000E+00    0.0000E+00    0.0000E+00  setid=       0
 node=  5869 local x,y,z forces =    0.0000E+00    0.0000E+00    0.0000E+00  setid=       0
 node=  5870 local x,y,z forces =    0.0000E+00    0.0000E+00    0.0000E+00  setid=       0
 node=  5871 local x,y,z forces =    0.0000E+00    0.0000E+00    0.0000E+00  setid=       0
 node=  5872 local x,y,z forces =    0.0000E+00    0.0000E+00    0.0000E+00  setid=       0
 node=  5873 local x,y,z forces =    0.0000E+00    0.0000E+00    0.0000E+00  setid=       0
 node=  5874 local x,y,z forces =    0.0000E+00    0.0000E+00    0.0000E+00  setid=       0
 node=  5875 local x,y,z forces =    0.0000E+00    0.0000E+00    0.0000E+00  setid=       0
 node=  5876 local x,y,z forces =    0.0000E+00    0.0000E+00    0.0000E+00  setid=       0
 node=  5877 local x,y,z forces =    0.0000E+00    0.0000E+00    0.0000E+00  setid=       0
 node=  5878 local x,y,z forces =    0.0000E+00    0.0000E+00    0.0000E+00  setid=       0
 node=  5879 local x,y,z forces =    0.0000E+00    0.0000E+00    0.0000E+00  setid=       0
 node=  5880 local x,y,z forces =    0.0000E+00    0.0000E+00    0.0000E+00  setid=       0
 node=  5881 local x,y,z forces =    0.0000E+00    0.0000E+00    0.0000E+00  setid=       0
 node=  5882 local x,y,z forces =    0.0000E+00    0.0000E+00    0.0000E+00  setid=       0
 node=  5883 local x,y,z forces =    0.0000E+00    0.0000E+00    0.0000E+00  setid=       0
 node=  5884 local x,y,z forces =    0.0000E+00    0.0000E+00    0.0000E+00  setid=       0
 node=  5885 local x,y,z forces =    0.0000E+00    0.0000E+00    0.0000E+00  setid=       0
 node=  5886 local x,y,z forces =    0.0000E+00    0.0000E+00    0.0000E+00  setid=       0
 node=  5887 local x,y,z forces =    0.0000E+00    0.0000E+00    0.0000E+00  setid=       0
 node=  5888 local x,y,z forces =    0.0000E+00    0.0000E+00    0.0000E+00  setid=       0
 node=  5889 local x,y,z forces =    0.0000E+00    0.0000E+00    0.0000E+00  setid=       0
 node=  5890 local x,y,z forces =    0.0000E+00    0.0000E+00    0.0000E+00  setid=       0
 node=  5891 local x,y,z forces =    0.0000E+00    0.0000E+00    0.0000E+00  setid=       0
 node=  5892 local x,y,z forces =    0.0000E+00    0.0000E+00    0.0000E+00  setid=       0
 node=  5893 local x,y,z forces =    0.0000E+00    0.0000E+00    0.0000E+00  setid=       0
 node=  5894 local x,y,z forces =    0.0000E+00    0.0000E+00    0.0000E+00  setid=       0
 node=  5895 local x,y,z forces =    0.0000E+00    0.0000E+00    0.0000E+00  setid=       0
 node=  5896 local x,y,z forces =    0.0000E+00    0.0000E+00    0.0000E+00  setid=       0
 node=  5897 local x,y,z forces =    0.0000E+00    0.0000E+00    0.0000E+00  setid=       0
 node=  5898 local x,y,z forces =    0.0000E+00    0.0000E+00    0.0000E+00  setid=       0
 node=  5899 local x,y,z forces =    0.0000E+00    0.0000E+00    0.0000E+00  setid=       0
 node=  5900 local x,y,z forces =    0.0000E+00    0.0000E+00    0.0000E+00  setid=       0
 node=  5901 local x,y,z forces =    0.0000E+00    0.0000E+00    0.0000E+00  setid=       0
 node=  5902 local x,y,z forces =    0.0000E+00    0.0000E+00    0.0000E+00  setid=       0
 node=  5903 local x,y,z forces =    0.0000E+00    0.0000E+00    0.0000E+00  setid=       0
 node=  5904 local x,y,z forces =    0.0000E+00    0.0000E+00    0.0000E+00  setid=       0
 node=  5905 local x,y,z forces =    0.0000E+00    0.0000E+00    0.0000E+00  setid=       0
 node=  5906 local x,y,z forces =    0.0000E+00    0.0000E+00    0.0000E+00  setid=       0
 node=  5907 local x,y,z forces =    0.0000E+00    0.0000E+00    0.0000E+00  setid=       0
 node=  5908 local x,y,z forces =    0.0000E+00    0.0000E+00    0.0000E+00  setid=       0
 node=  5909 local x,y,z forces =    0.0000E+00    0.0000E+00    0.0000E+00  setid=       0
 node=  5910 local x,y,z forces =    0.0000E+00    0.0000E+00    0.0000E+00  setid=       0
 node=  5911 local x,y,z forces =    0.0000E+00    0.0000E+00    0.0000E+00  setid=       0
 node=  5912 local x,y,z forces =    0.0000E+00    0.0000E+00    0.0000E+00  setid=       0
 node=  5913 local x,y,z forces =    0.0000E+00    0.0000E+00    0.0000E+00  setid=       0
 node=  5914 local x,y,z forces =    0.0000E+00    0.0000E+00    0.0000E+00  setid=       0
 node=  5915 local x,y,z forces =    0.0000E+00    0.0000E+00    0.0000E+00  setid=       0
 node=  5916 local x,y,z forces =    0.0000E+00    0.0000E+00    0.0000E+00  setid=       0
 node=  5917 local x,y,z forces =    0.0000E+00    0.0000E+00    0.0000E+00  setid=       0
 node=  5918 local x,y,z forces =    0.0000E+00    0.0000E+00    0.0000E+00  setid=       0
 node=  5919 local x,y,z forces =    0.0000E+00    0.0000E+00    0.0000E+00  setid=       0
 node=  5920 local x,y,z forces =    0.0000E+00    0.0000E+00    0.0000E+00  setid=       0
 node=  5921 local x,y,z forces =    0.0000E+00    0.0000E+00    0.0000E+00  setid=       0
 node=  5922 local x,y,z forces =    0.0000E+00    0.0000E+00    0.0000E+00  setid=       0
 node=  5923 local x,y,z forces =    0.0000E+00    0.0000E+00    0.0000E+00  setid=       0
 node=  5924 local x,y,z forces =    0.0000E+00    0.0000E+00    0.0000E+00  setid=       0
 node=  5925 local x,y,z forces =    0.0000E+00    0.0000E+00    0.0000E+00  setid=       0
 node=  5926 local x,y,z forces =    0.0000E+00    0.0000E+00    0.0000E+00  setid=       0
 node=  5927 local x,y,z forces =    0.0000E+00    0.0000E+00    0.0000E+00  setid=       0
 node=  5928 local x,y,z forces =    0.0000E+00    0.0000E+00    0.0000E+00  setid=       0
 node=  5929 local x,y,z forces =    0.0000E+00    0.0000E+00    0.0000E+00  setid=       0
 node=  5930 local x,y,z forces =    0.0000E+00    0.0000E+00    0.0000E+00  setid=       0
 node=  5931 local x,y,z forces =    0.0000E+00    0.0000E+00    0.0000E+00  setid=       0
 node=  5932 local x,y,z forces =    0.0000E+00    0.0000E+00    0.0000E+00  setid=       0
 node=  5933 local x,y,z forces =    0.0000E+00    0.0000E+00    0.0000E+00  setid=       0
 node=  5934 local x,y,z forces =    0.0000E+00    0.0000E+00    0.0000E+00  setid=       0
 node=  5935 local x,y,z forces =    0.0000E+00    0.0000E+00    0.0000E+00  setid=       0
 node=  5936 local x,y,z forces =    0.0000E+00    0.0000E+00    0.0000E+00  setid=       0
 node=  5937 local x,y,z forces =    0.0000E+00    0.0000E+00    0.0000E+00  setid=       0
 node=  5938 local x,y,z forces =    0.0000E+00    0.0000E+00    0.0000E+00  setid=       0
 node=  5939 local x,y,z forces =    0.0000E+00    0.0000E+00    0.0000E+00  setid=       0
 node=  5940 local x,y,z forces =    0.0000E+00    0.0000E+00    0.0000E+00  setid=       0
 node=  5941 local x,y,z forces =    0.0000E+00    0.0000E+00    0.0000E+00  setid=       0
 node=  5942 local x,y,z forces =    0.0000E+00    0.0000E+00    0.0000E+00  setid=       0
 node=  5943 local x,y,z forces =    0.0000E+00    0.0000E+00    0.0000E+00  setid=       0
 node=  5944 local x,y,z forces =    0.0000E+00    0.0000E+00    0.0000E+00  setid=       0
 node=  5945 local x,y,z forces =    0.0000E+00    0.0000E+00    0.0000E+00  setid=       0
 node=  5946 local x,y,z forces =    0.0000E+00    0.0000E+00    0.0000E+00  setid=       0
 node=  5947 local x,y,z forces =    0.0000E+00    0.0000E+00    0.0000E+00  setid=       0
 node=  5948 local x,y,z forces =    0.0000E+00    0.0000E+00    0.0000E+00  setid=       0
 node=  5949 local x,y,z forces =    0.0000E+00    0.0000E+00    0.0000E+00  setid=       0
 node=  5950 local x,y,z forces =    0.0000E+00    0.0000E+00    0.0000E+00  setid=       0
 node=  5951 local x,y,z forces =    0.0000E+00    0.0000E+00    0.0000E+00  setid=       0
 node=  5952 local x,y,z forces =    0.0000E+00    0.0000E+00    0.0000E+00  setid=       0
 node=  5953 local x,y,z forces =    0.0000E+00    0.0000E+00    0.0000E+00  setid=       0
 node=  5954 local x,y,z forces =    0.0000E+00    0.0000E+00    0.0000E+00  setid=       0
 node=  5955 local x,y,z forces =    0.0000E+00    0.0000E+00    0.0000E+00  setid=       0
 node=  5956 local x,y,z forces =    0.0000E+00    0.0000E+00    0.0000E+00  setid=       0
 node=  5957 local x,y,z forces =    0.0000E+00    0.0000E+00    0.0000E+00  setid=       0
 node=  5958 local x,y,z forces =    0.0000E+00    0.0000E+00    0.0000E+00  setid=       0
 node=  5959 local x,y,z forces =    0.0000E+00    0.0000E+00    0.0000E+00  setid=       0
 node=  5960 local x,y,z forces =    0.0000E+00    0.0000E+00    0.0000E+00  setid=       0
 node=  5961 local x,y,z forces =    0.0000E+00    0.0000E+00    0.0000E+00  setid=       0
 node=  5962 local x,y,z forces =    0.0000E+00    0.0000E+00    0.0000E+00  setid=       0
 node=  5963 local x,y,z forces =    0.0000E+00    0.0000E+00    0.0000E+00  setid=       0
 node=  5964 local x,y,z forces =    0.0000E+00    0.0000E+00    0.0000E+00  setid=       0
 node=  5965 local x,y,z forces =    0.0000E+00    0.0000E+00    0.0000E+00  setid=       0
 node=  5966 local x,y,z forces =    0.0000E+00    0.0000E+00    0.0000E+00  setid=       0
 node=  5967 local x,y,z forces =    0.0000E+00    0.0000E+00    0.0000E+00  setid=       0
             force resultants   =    0.0000E+00    0.0000E+00    0.0000E+00
 output at time =   2.00000E-04
 node=     1 local x,y,z forces =   -6.3997E+03   -6.5728E+03   -1.3452E+04  setid=       0
 node=     2 local x,y,z forces =   -1.5729E+03   -1.2480E+04   -2.2803E+04  setid=       0
 node=     3 local x,y,z forces =   -1.6256E+03   -1.1918E+04   -2.1018E+04  setid=       0
 node=     4 local x,y,z forces =   -6.5894E+02   -1.1924E+04   -2.1363E+04  setid=       0
 node=     5 local x,y,z forces =   -7.2760E-12   -1.1890E+04   -2.1132E+04  setid=       0
 node=     6 local x,y,z forces =    6.5894E+02   -1.1924E+04   -2.1363E+04  setid=       0
 node=     7 local x,y,z forces =    1.6256E+03   -1.1918E+04   -2.1018E+04  setid=       0
 node=     8 local x,y,z forces =    1.5729E+03   -1.2480E+04   -2.2803E+04  setid=       0
 node=     9 local x,y,z forces =    6.3997E+03   -6.5728E+03   -1.3452E+04  setid=       0
 node=    10 local x,y,z forces =   -1.1897E+04   -1.8673E+03   -2.2084E+04  setid=       0
 node=    11 local x,y,z forces =   -3.1238E+03   -3.7244E+03   -3.5898E+04  setid=       0
 node=    12 local x,y,z forces =   -3.2379E+03   -3.7765E+03   -3.2205E+04  setid=       0
 node=    13 local x,y,z forces =   -1.3061E+03   -3.8389E+03   -3.2824E+04  setid=       0
 node=    14 local x,y,z forces =   -9.0949E-12   -3.8583E+03   -3.2330E+04  setid=       0
 node=    15 local x,y,z forces =    1.3061E+03   -3.8389E+03   -3.2824E+04  setid=       0
 node=    16 local x,y,z forces =    3.2379E+03   -3.7765E+03   -3.2205E+04  setid=       0
 node=    17 local x,y,z forces =    3.1238E+03   -3.7244E+03   -3.5898E+04  setid=       0
 node=    18 local x,y,z forces =    1.1897E+04   -1.8673E+03   -2.2084E+04  setid=       0
 node=    19 local x,y,z forces =   -1.1078E+04   -2.2791E+03   -1.9720E+04  setid=       0
 node=    20 local x,y,z forces =   -3.1622E+03   -4.5311E+03   -3.1101E+04  setid=       0
 node=    21 local x,y,z forces =   -3.2846E+03   -4.5553E+03   -2.7356E+04  setid=       0
 node=    22 local x,y,z forces =   -1.3176E+03   -4.6169E+03   -2.7987E+04  setid=       0
 node=    23 local x,y,z forces =    1.8190E-12   -4.6404E+03   -2.7490E+04  setid=       0
 node=    24 local x,y,z forces =    1.3176E+03   -4.6169E+03   -2.7987E+04  setid=       0
 node=    25 local x,y,z forces =    3.2846E+03   -4.5553E+03   -2.7356E+04  setid=       0
 node=    26 local x,y,z forces =    3.1622E+03   -4.5311E+03   -3.1101E+04  setid=       0
 node=    27 local x,y,z forces =    1.1078E+04   -2.2791E+03   -1.9720E+04  setid=       0
 node=    28 local x,y,z forces =   -1.1011E+04   -1.4381E+03   -1.9918E+04  setid=       0
 node=    29 local x,y,z forces =   -3.2202E+03   -2.8379E+03   -3.1426E+04  setid=       0
 node=    30 local x,y,z forces =   -3.3675E+03   -2.8148E+03   -2.7673E+04  setid=       0
 node=    31 local x,y,z forces =   -1.3569E+03   -2.8347E+03   -2.8363E+04  setid=       0
 node=    32 local x,y,z forces =    2.0918E-11   -2.8455E+03   -2.7878E+04  setid=       0
 node=    33 local x,y,z forces =    1.3569E+03   -2.8347E+03   -2.8363E+04  setid=       0
 node=    34 local x,y,z forces =    3.3675E+03   -2.8148E+03   -2.7673E+04  setid=       0
 node=    35 local x,y,z forces =    3.2202E+03   -2.8379E+03   -3.1426E+04  setid=       0
 node=    36 local x,y,z forces =    1.1011E+04   -1.4381E+03   -1.9918E+04  setid=       0
 node=    37 local x,y,z forces =   -1.0951E+04   -9.9601E+02   -1.9691E+04  setid=       0
 node=    38 local x,y,z forces =   -3.2571E+03   -1.9652E+03   -3.0895E+04  setid=       0
 node=    39 local x,y,z forces =   -3.4242E+03   -1.9417E+03   -2.7102E+04  setid=       0
 node=    40 local x,y,z forces =   -1.3881E+03   -1.9474E+03   -2.7813E+04  setid=       0
 node=    41 local x,y,z forces =    1.9099E-11   -1.9508E+03   -2.7332E+04  setid=       0
 node=    42 local x,y,z forces =    1.3881E+03   -1.9474E+03   -2.7813E+04  setid=       0
 node=    43 local x,y,z forces =    3.4242E+03   -1.9417E+03   -2.7102E+04  setid=       0
 node=    44 local x,y,z forces =    3.2571E+03   -1.9652E+03   -3.0895E+04  setid=       0
 node=    45 local x,y,z forces =    1.0951E+04   -9.9601E+02   -1.9691E+04  setid=       0
 node=    46 local x,y,z forces =   -1.0957E+04   -4.6040E+02   -1.9782E+04  setid=       0
 node=    47 local x,y,z forces =   -3.2787E+03   -9.1150E+02   -3.0986E+04  setid=       0
 node=    48 local x,y,z forces =   -3.4530E+03   -8.9154E+02   -2.7219E+04  setid=       0
 node=    49 local x,y,z forces =   -1.4087E+03   -8.9171E+02   -2.7887E+04  setid=       0
 node=    50 local x,y,z forces =    0.0000E+00   -8.9312E+02   -2.7460E+04  setid=       0
 node=    51 local x,y,z forces =    1.4087E+03   -8.9171E+02   -2.7887E+04  setid=       0
 node=    52 local x,y,z forces =    3.4530E+03   -8.9154E+02   -2.7219E+04  setid=       0
 node=    53 local x,y,z forces =    3.2787E+03   -9.1150E+02   -3.0986E+04  setid=       0
 node=    54 local x,y,z forces =    1.0957E+04   -4.6040E+02   -1.9782E+04  setid=       0
 node=    55 local x,y,z forces =   -1.0957E+04    3.4386E+00   -1.9729E+04  setid=       0
 node=    56 local x,y,z forces =   -3.2840E+03    5.8421E+00   -3.0811E+04  setid=       0
 node=    57 local x,y,z forces =   -3.4584E+03    4.6058E+00   -2.7087E+04  setid=       0
 node=    58 local x,y,z forces =   -1.4164E+03    4.1657E+00   -2.7710E+04  setid=       0
 node=    59 local x,y,z forces =    0.0000E+00    4.0178E+00   -2.7327E+04  setid=       0
 node=    60 local x,y,z forces =    1.4164E+03    4.1657E+00   -2.7710E+04  setid=       0
 node=    61 local x,y,z forces =    3.4584E+03    4.6058E+00   -2.7087E+04  setid=       0
 node=    62 local x,y,z forces =    3.2840E+03    5.8421E+00   -3.0811E+04  setid=       0
 node=    63 local x,y,z forces =    1.0957E+04    3.4386E+00   -1.9729E+04  setid=       0
 node=    64 local x,y,z forces =   -1.0951E+04    4.6712E+02   -1.9771E+04  setid=       0
 node=    65 local x,y,z forces =   -3.2769E+03    9.2288E+02   -3.0968E+04  setid=       0
 node=    66 local x,y,z forces =   -3.4512E+03    9.0047E+02   -2.7203E+04  setid=       0
 node=    67 local x,y,z forces =   -1.4079E+03    8.9977E+02   -2.7871E+04  setid=       0
 node=    68 local x,y,z forces =   -5.4570E-12    9.0089E+02   -2.7445E+04  setid=       0
 node=    69 local x,y,z forces =    1.4079E+03    8.9977E+02   -2.7871E+04  setid=       0
 node=    70 local x,y,z forces =    3.4512E+03    9.0047E+02   -2.7203E+04  setid=       0
 node=    71 local x,y,z forces =    3.2769E+03    9.2288E+02   -3.0968E+04  setid=       0
 node=    72 local x,y,z forces =    1.0951E+04    4.6712E+02   -1.9771E+04  setid=       0
 node=    73 local x,y,z forces =   -1.0938E+04    1.0020E+03   -1.9669E+04  setid=       0
 node=    74 local x,y,z forces =   -3.2535E+03    1.9751E+03   -3.0860E+04  setid=       0
 node=    75 local x,y,z forces =   -3.4205E+03    1.9492E+03   -2.7072E+04  setid=       0
 node=    76 local x,y,z forces =   -1.3867E+03    1.9539E+03   -2.7781E+04  setid=       0
 node=    77 local x,y,z forces =    6.3665E-12    1.9571E+03   -2.7301E+04  setid=       0
 node=    78 local x,y,z forces =    1.3867E+03    1.9539E+03   -2.7781E+04  setid=       0
 node=    79 local x,y,z forces =    3.4205E+03    1.9492E+03   -2.7072E+04  setid=       0
 node=    80 local x,y,z forces =    3.2535E+03    1.9751E+03   -3.0860E+04  setid=       0
 node=    81 local x,y,z forces =    1.0938E+04    1.0020E+03   -1.9669E+04  setid=       0
 node=    82 local x,y,z forces =   -1.0992E+04    1.4430E+03   -1.9885E+04  setid=       0
 node=    83 local x,y,z forces =   -3.2150E+03    2.8458E+03   -3.1373E+04  setid=       0
 node=    84 local x,y,z forces =   -3.3621E+03    2.8203E+03   -2.7626E+04  setid=       0
 node=    85 local x,y,z forces =   -1.3548E+03    2.8393E+03   -2.8315E+04  setid=       0
 node=    86 local x,y,z forces =   -5.4570E-12    2.8498E+03   -2.7831E+04  setid=       0
 node=    87 local x,y,z forces =    1.3548E+03    2.8393E+03   -2.8315E+04  setid=       0
 node=    88 local x,y,z forces =    3.3621E+03    2.8203E+03   -2.7626E+04  setid=       0
 node=    89 local x,y,z forces =    3.2150E+03    2.8458E+03   -3.1373E+04  setid=       0
 node=    90 local x,y,z forces =    1.0992E+04    1.4430E+03   -1.9885E+04  setid=       0
 node=    91 local x,y,z forces =   -1.1053E+04    2.2817E+03   -1.9677E+04  setid=       0
 node=    92 local x,y,z forces =   -3.1555E+03    4.5343E+03   -3.1033E+04  setid=       0
 node=    93 local x,y,z forces =   -3.2775E+03    4.5561E+03   -2.7295E+04  setid=       0
 node=    94 local x,y,z forces =   -1.3147E+03    4.6167E+03   -2.7925E+04  setid=       0
 node=    95 local x,y,z forces =   -1.3642E-11    4.6399E+03   -2.7430E+04  setid=       0
 node=    96 local x,y,z forces =    1.3147E+03    4.6167E+03   -2.7925E+04  setid=       0
 node=    97 local x,y,z forces =    3.2775E+03    4.5561E+03   -2.7295E+04  setid=       0
 node=    98 local x,y,z forces =    3.1555E+03    4.5343E+03   -3.1033E+04  setid=       0
 node=    99 local x,y,z forces =    1.1053E+04    2.2817E+03   -1.9677E+04  setid=       0
 node=   100 local x,y,z forces =   -1.1866E+04    1.8685E+03   -2.2027E+04  setid=       0
 node=   101 local x,y,z forces =   -3.1153E+03    3.7254E+03   -3.5806E+04  setid=       0
 node=   102 local x,y,z forces =   -3.2290E+03    3.7758E+03   -3.2122E+04  setid=       0
 node=   103 local x,y,z forces =   -1.3023E+03    3.8376E+03   -3.2739E+04  setid=       0
 node=   104 local x,y,z forces =    0.0000E+00    3.8568E+03   -3.2245E+04  setid=       0
 node=   105 local x,y,z forces =    1.3023E+03    3.8376E+03   -3.2739E+04  setid=       0
 node=   106 local x,y,z forces =    3.2290E+03    3.7758E+03   -3.2122E+04  setid=       0
 node=   107 local x,y,z forces =    3.1153E+03    3.7254E+03   -3.5806E+04  setid=       0
 node=   108 local x,y,z forces =    1.1866E+04    1.8685E+03   -2.2027E+04  setid=       0
 node=   109 local x,y,z forces =   -6.3819E+03    6.5569E+03   -1.3418E+04  setid=       0
 node=   110 local x,y,z forces =   -1.5680E+03    1.2450E+04   -2.2745E+04  setid=       0
 node=   111 local x,y,z forces =   -1.6205E+03    1.1888E+04   -2.0963E+04  setid=       0
 node=   112 local x,y,z forces =   -6.5682E+02    1.1893E+04   -2.1306E+04  setid=       0
 node=   113 local x,y,z forces =   -9.0949E-13    1.1860E+04   -2.1075E+04  setid=       0
 node=   114 local x,y,z forces =    6.5682E+02    1.1893E+04   -2.1306E+04  setid=       0
 node=   115 local x,y,z forces =    1.6205E+03    1.1888E+04   -2.0963E+04  setid=       0
 node=   116 local x,y,z forces =    1.5680E+03    1.2450E+04   -2.2745E+04  setid=       0
 node=   117 local x,y,z forces =    6.3819E+03    6.5569E+03   -1.3418E+04  setid=       0
 node=  2863 local x,y,z forces =   -5.9869E+04    0.0000E+00    0.0000E+00  setid=       0
 node=  2871 local x,y,z forces =    5.9869E+04    0.0000E+00    0.0000E+00  setid=       0
 node=  2980 local x,y,z forces =   -9.3651E+04    0.0000E+00    0.0000E+00  setid=       0
 node=  2988 local x,y,z forces =    9.3651E+04    0.0000E+00    0.0000E+00  setid=       0
 node=  3097 local x,y,z forces =   -5.9869E+04    0.0000E+00    0.0000E+00  setid=       0
 node=  3105 local x,y,z forces =    5.9869E+04    0.0000E+00    0.0000E+00  setid=       0
 node=  5851 local x,y,z forces =   -6.3997E+03   -6.5728E+03    0.0000E+00  setid=       0
 node=  5852 local x,y,z forces =   -1.5729E+03   -1.2480E+04    0.0000E+00  setid=       0
 node=  5853 local x,y,z forces =   -1.6256E+03   -1.1918E+04    0.0000E+00  setid=       0
 node=  5854 local x,y,z forces =   -6.5894E+02   -1.1924E+04    0.0000E+00  setid=       0
 node=  5855 local x,y,z forces =    1.2005E-10   -1.1890E+04    0.0000E+00  setid=       0
 node=  5856 local x,y,z forces =    6.5894E+02   -1.1924E+04    0.0000E+00  setid=       0
 node=  5857 local x,y,z forces =    1.6256E+03   -1.1918E+04    0.0000E+00  setid=       0
 node=  5858 local x,y,z forces =    1.5729E+03   -1.2480E+04    0.0000E+00  setid=       0
 node=  5859 local x,y,z forces =    6.3997E+03   -6.5728E+03    0.0000E+00  setid=       0
 node=  5860 local x,y,z forces =   -1.1897E+04   -1.8673E+03    0.0000E+00  setid=       0
 node=  5861 local x,y,z forces =   -3.1238E+03   -3.7244E+03    0.0000E+00  setid=       0
 node=  5862 local x,y,z forces =   -3.2379E+03   -3.7765E+03    0.0000E+00  setid=       0
 node=  5863 local x,y,z forces =   -1.3061E+03   -3.8389E+03    0.0000E+00  setid=       0
 node=  5864 local x,y,z forces =    2.3920E-10   -3.8583E+03    0.0000E+00  setid=       0
 node=  5865 local x,y,z forces =    1.3061E+03   -3.8389E+03    0.0000E+00  setid=       0
 node=  5866 local x,y,z forces =    3.2379E+03   -3.7765E+03    0.0000E+00  setid=       0
 node=  5867 local x,y,z forces =    3.1238E+03   -3.7244E+03    0.0000E+00  setid=       0
 node=  5868 local x,y,z forces =    1.1897E+04   -1.8673E+03    0.0000E+00  setid=       0
 node=  5869 local x,y,z forces =   -1.1078E+04   -2.2791E+03    0.0000E+00  setid=       0
 node=  5870 local x,y,z forces =   -3.1622E+03   -4.5311E+03    0.0000E+00  setid=       0
 node=  5871 local x,y,z forces =   -3.2846E+03   -4.5553E+03    0.0000E+00  setid=       0
 node=  5872 local x,y,z forces =   -1.3176E+03   -4.6169E+03    0.0000E+00  setid=       0
 node=  5873 local x,y,z forces =    3.2560E-10   -4.6404E+03    0.0000E+00  setid=       0
 node=  5874 local x,y,z forces =    1.3176E+03   -4.6169E+03    0.0000E+00  setid=       0
 node=  5875 local x,y,z forces =    3.2846E+03   -4.5553E+03    0.0000E+00  setid=       0
 node=  5876 local x,y,z forces =    3.1622E+03   -4.5311E+03    0.0000E+00  setid=       0
 node=  5877 local x,y,z forces =    1.1078E+04   -2.2791E+03    0.0000E+00  setid=       0
 node=  5878 local x,y,z forces =   -1.1011E+04   -1.4381E+03    0.0000E+00  setid=       0
 node=  5879 local x,y,z forces =   -3.2202E+03   -2.8379E+03    0.0000E+00  setid=       0
 node=  5880 local x,y,z forces =   -3.3675E+03   -2.8148E+03    0.0000E+00  setid=       0
 node=  5881 local x,y,z forces =   -1.3569E+03   -2.8347E+03    0.0000E+00  setid=       0
 node=  5882 local x,y,z forces =    7.1486E-10   -2.8455E+03    0.0000E+00  setid=       0
 node=  5883 local x,y,z forces =    1.3569E+03   -2.8347E+03    0.0000E+00  setid=       0
 node=  5884 local x,y,z forces =    3.3675E+03   -2.8148E+03    0.0000E+00  setid=       0
 node=  5885 local x,y,z forces =    3.2202E+03   -2.8379E+03    0.0000E+00  setid=       0
 node=  5886 local x,y,z forces =    1.1011E+04   -1.4381E+03    0.0000E+00  setid=       0
 node=  5887 local x,y,z forces =   -1.0951E+04   -9.9601E+02    0.0000E+00  setid=       0
 node=  5888 local x,y,z forces =   -3.2571E+03   -1.9652E+03    0.0000E+00  setid=       0
 node=  5889 local x,y,z forces =   -3.4242E+03   -1.9417E+03    0.0000E+00  setid=       0
 node=  5890 local x,y,z forces =   -1.3881E+03   -1.9474E+03    0.0000E+00  setid=       0
 node=  5891 local x,y,z forces =    7.9035E-10   -1.9508E+03    0.0000E+00  setid=       0
 node=  5892 local x,y,z forces =    1.3881E+03   -1.9474E+03    0.0000E+00  setid=       0
 node=  5893 local x,y,z forces =    3.4242E+03   -1.9417E+03    0.0000E+00  setid=       0
 node=  5894 local x,y,z forces =    3.2571E+03   -1.9652E+03    0.0000E+00  setid=       0
 node=  5895 local x,y,z forces =    1.0951E+04   -9.9601E+02    0.0000E+00  setid=       0
 node=  5896 local x,y,z forces =   -1.0957E+04   -4.6040E+02    0.0000E+00  setid=       0
 node=  5897 local x,y,z forces =   -3.2787E+03   -9.1150E+02    0.0000E+00  setid=       0
 node=  5898 local x,y,z forces =   -3.4530E+03   -8.9154E+02    0.0000E+00  setid=       0
 node=  5899 local x,y,z forces =   -1.4087E+03   -8.9171E+02    0.0000E+00  setid=       0
 node=  5900 local x,y,z forces =   -1.1823E-11   -8.9312E+02    0.0000E+00  setid=       0
 node=  5901 local x,y,z forces =    1.4087E+03   -8.9171E+02    0.0000E+00  setid=       0
 node=  5902 local x,y,z forces =    3.4530E+03   -8.9154E+02    0.0000E+00  setid=       0
 node=  5903 local x,y,z forces =    3.2787E+03   -9.1150E+02    0.0000E+00  setid=       0
 node=  5904 local x,y,z forces =    1.0957E+04   -4.6040E+02    0.0000E+00  setid=       0
 node=  5905 local x,y,z forces =   -1.0957E+04    3.4386E+00    0.0000E+00  setid=       0
 node=  5906 local x,y,z forces =   -3.2840E+03    5.8421E+00    0.0000E+00  setid=       0
 node=  5907 local x,y,z forces =   -3.4584E+03    4.6058E+00    0.0000E+00  setid=       0
 node=  5908 local x,y,z forces =   -1.4164E+03    4.1657E+00    0.0000E+00  setid=       0
 node=  5909 local x,y,z forces =    1.0004E-10    4.0178E+00    0.0000E+00  setid=       0
 node=  5910 local x,y,z forces =    1.4164E+03    4.1657E+00    0.0000E+00  setid=       0
 node=  5911 local x,y,z forces =    3.4584E+03    4.6058E+00    0.0000E+00  setid=       0
 node=  5912 local x,y,z forces =    3.2840E+03    5.8421E+00    0.0000E+00  setid=       0
 node=  5913 local x,y,z forces =    1.0957E+04    3.4386E+00    0.0000E+00  setid=       0
 node=  5914 local x,y,z forces =   -1.0951E+04    4.6712E+02    0.0000E+00  setid=       0
 node=  5915 local x,y,z forces =   -3.2769E+03    9.2288E+02    0.0000E+00  setid=       0
 node=  5916 local x,y,z forces =   -3.4512E+03    9.0047E+02    0.0000E+00  setid=       0
 node=  5917 local x,y,z forces =   -1.4079E+03    8.9977E+02    0.0000E+00  setid=       0
 node=  5918 local x,y,z forces =    3.1650E-10    9.0089E+02    0.0000E+00  setid=       0
 node=  5919 local x,y,z forces =    1.4079E+03    8.9977E+02    0.0000E+00  setid=       0
 node=  5920 local x,y,z forces =    3.4512E+03    9.0047E+02    0.0000E+00  setid=       0
 node=  5921 local x,y,z forces =    3.2769E+03    9.2288E+02    0.0000E+00  setid=       0
 node=  5922 local x,y,z forces =    1.0951E+04    4.6712E+02    0.0000E+00  setid=       0
 node=  5923 local x,y,z forces =   -1.0938E+04    1.0020E+03    0.0000E+00  setid=       0
 node=  5924 local x,y,z forces =   -3.2535E+03    1.9751E+03    0.0000E+00  setid=       0
 node=  5925 local x,y,z forces =   -3.4205E+03    1.9492E+03    0.0000E+00  setid=       0
 node=  5926 local x,y,z forces =   -1.3867E+03    1.9539E+03    0.0000E+00  setid=       0
 node=  5927 local x,y,z forces =    2.6012E-10    1.9571E+03    0.0000E+00  setid=       0
 node=  5928 local x,y,z forces =    1.3867E+03    1.9539E+03    0.0000E+00  setid=       0
 node=  5929 local x,y,z forces =    3.4205E+03    1.9492E+03    0.0000E+00  setid=       0
 node=  5930 local x,y,z forces =    3.2535E+03    1.9751E+03    0.0000E+00  setid=       0
 node=  5931 local x,y,z forces =    1.0938E+04    1.0020E+03    0.0000E+00  setid=       0
 node=  5932 local x,y,z forces =   -1.0992E+04    1.4430E+03    0.0000E+00  setid=       0
 node=  5933 local x,y,z forces =   -3.2150E+03    2.8458E+03    0.0000E+00  setid=       0
 node=  5934 local x,y,z forces =   -3.3621E+03    2.8203E+03    0.0000E+00  setid=       0
 node=  5935 local x,y,z forces =   -1.3548E+03    2.8393E+03    0.0000E+00  setid=       0
 node=  5936 local x,y,z forces =    5.0659E-10    2.8498E+03    0.0000E+00  setid=       0
 node=  5937 local x,y,z forces =    1.3548E+03    2.8393E+03    0.0000E+00  setid=       0
 node=  5938 local x,y,z forces =    3.3621E+03    2.8203E+03    0.0000E+00  setid=       0
 node=  5939 local x,y,z forces =    3.2150E+03    2.8458E+03    0.0000E+00  setid=       0
 node=  5940 local x,y,z forces =    1.0992E+04    1.4430E+03    0.0000E+00  setid=       0
 node=  5941 local x,y,z forces =   -1.1053E+04    2.2817E+03    0.0000E+00  setid=       0
 node=  5942 local x,y,z forces =   -3.1555E+03    4.5343E+03    0.0000E+00  setid=       0
 node=  5943 local x,y,z forces =   -3.2775E+03    4.5561E+03    0.0000E+00  setid=       0
 node=  5944 local x,y,z forces =   -1.3147E+03    4.6167E+03    0.0000E+00  setid=       0
 node=  5945 local x,y,z forces =   -5.4570E-12    4.6399E+03    0.0000E+00  setid=       0
 node=  5946 local x,y,z forces =    1.3147E+03    4.6167E+03    0.0000E+00  setid=       0
 node=  5947 local x,y,z forces =    3.2775E+03    4.5561E+03    0.0000E+00  setid=       0
 node=  5948 local x,y,z forces =    3.1555E+03    4.5343E+03    0.0000E+00  setid=       0
 node=  5949 local x,y,z forces =    1.1053E+04    2.2817E+03    0.0000E+00  setid=       0
 node=  5950 local x,y,z forces =   -1.1866E+04    1.8685E+03    0.0000E+00  setid=       0
 node=  5951 local x,y,z forces =   -3.1153E+03    3.7254E+03    0.0000E+00  setid=       0
 node=  5952 local x,y,z forces =   -3.2290E+03    3.7758E+03    0.0000E+00  setid=       0
 node=  5953 local x,y,z forces =   -1.3023E+03    3.8376E+03    0.0000E+00  setid=       0
 node=  5954 local x,y,z forces =   -2.6193E-10    3.8568E+03    0.0000E+00  setid=       0
 node=  5955 local x,y,z forces =    1.3023E+03    3.8376E+03    0.0000E+00  setid=       0
 node=  5956 local x,y,z forces =    3.2290E+03    3.7758E+03    0.0000E+00  setid=       0
 node=  5957 local x,y,z forces =    3.1153E+03    3.7254E+03    0.0000E+00  setid=       0
 node=  5958 local x,y,z forces =    1.1866E+04    1.8685E+03    0.0000E+00  setid=       0
 node=  5959 local x,y,z forces =   -6.3819E+03    6.5569E+03    0.0000E+00  setid=       0
 node=  5960 local x,y,z forces =   -1.5680E+03    1.2450E+04    0.0000E+00  setid=       0
 node=  5961 local x,y,z forces =   -1.6205E+03    1.1888E+04    0.0000E+00  setid=       0
 node=  5962 local x,y,z forces =   -6.5682E+02    1.1893E+04    0.0000E+00  setid=       0
 node=  5963 local x,y,z forces =   -3.5470E-11    1.1860E+04    0.0000E+00  setid=       0
 node=  5964 local x,y,z forces =    6.5682E+02    1.1893E+04    0.0000E+00  setid=       0
 node=  5965 local x,y,z forces =    1.6205E+03    1.1888E+04    0.0000E+00  setid=       0
 node=  5966 local x,y,z forces =    1.5680E+03    1.2450E+04    0.0000E+00  setid=       0
 node=  5967 local x,y,z forces =    6.3819E+03    6.5569E+03    0.0000E+00  setid=       0
             force resultants   =   -2.5284E-10    2.7767E-02   -3.0690E+06
 output at time =   4.00000E-04
 node=     1 local x,y,z forces =   -1.2801E+04   -1.3147E+04   -2.6918E+04  setid=       0
 node=     2 local x,y,z forces =   -3.1455E+03   -2.4963E+04   -4.5627E+04  setid=       0
 node=     3 local x,y,z forces =   -3.2520E+03   -2.3837E+04   -4.2054E+04  setid=       0
 node=     4 local x,y,z forces =   -1.3180E+03   -2.3849E+04   -4.2745E+04  setid=       0
 node=     5 local x,y,z forces =   -7.2760E-12   -2.3782E+04   -4.2282E+04  setid=       0
 node=     6 local x,y,z forces =    1.3180E+03   -2.3849E+04   -4.2745E+04  setid=       0
 node=     7 local x,y,z forces =    3.2520E+03   -2.3837E+04   -4.2054E+04  setid=       0
 node=     8 local x,y,z forces =    3.1455E+03   -2.4963E+04   -4.5627E+04  setid=       0
 node=     9 local x,y,z forces =    1.2801E+04   -1.3147E+04   -2.6918E+04  setid=       0
 node=    10 local x,y,z forces =   -2.3797E+04   -3.7336E+03   -4.4188E+04  setid=       0
 node=    11 local x,y,z forces =   -6.2472E+03   -7.4471E+03   -7.1824E+04  setid=       0
 node=    12 local x,y,z forces =   -6.4772E+03   -7.5515E+03   -6.4434E+04  setid=       0
 node=    13 local x,y,z forces =   -2.6124E+03   -7.6762E+03   -6.5672E+04  setid=       0
 node=    14 local x,y,z forces =   -1.2733E-11   -7.7151E+03   -6.4683E+04  setid=       0
 node=    15 local x,y,z forces =    2.6124E+03   -7.6762E+03   -6.5672E+04  setid=       0
 node=    16 local x,y,z forces =    6.4772E+03   -7.5515E+03   -6.4434E+04  setid=       0
 node=    17 local x,y,z forces =    6.2472E+03   -7.4471E+03   -7.1824E+04  setid=       0
 node=    18 local x,y,z forces =    2.3797E+04   -3.7336E+03   -4.4188E+04  setid=       0
 node=    19 local x,y,z forces =   -2.2157E+04   -4.5584E+03   -3.9457E+04  setid=       0
 node=    20 local x,y,z forces =   -6.3238E+03   -9.0627E+03   -6.2224E+04  setid=       0
 node=    21 local x,y,z forces =   -6.5704E+03   -9.1114E+03   -5.4727E+04  setid=       0
 node=    22 local x,y,z forces =   -2.6355E+03   -9.2346E+03   -5.5990E+04  setid=       0
 node=    23 local x,y,z forces =   -7.2760E-12   -9.2817E+03   -5.4996E+04  setid=       0
 node=    24 local x,y,z forces =    2.6355E+03   -9.2346E+03   -5.5990E+04  setid=       0
 node=    25 local x,y,z forces =    6.5704E+03   -9.1114E+03   -5.4727E+04  setid=       0
 node=    26 local x,y,z forces =    6.3238E+03   -9.0627E+03   -6.2224E+04  setid=       0
 node=    27 local x,y,z forces =    2.2157E+04   -4.5584E+03   -3.9457E+04  setid=       0
 node=    28 local x,y,z forces =   -2.2023E+04   -2.8759E+03   -3.9852E+04  setid=       0
 node=    29 local x,y,z forces =   -6.4397E+03   -5.6754E+03   -6.2872E+04  setid=       0
 node=    30 local x,y,z forces =   -6.7363E+03   -5.6294E+03   -5.5360E+04  setid=       0
 node=    31 local x,y,z forces =   -2.7141E+03   -5.6692E+03   -5.6742E+04  setid=       0
 node=    32 local x,y,z forces =   -1.8190E-12   -5.6908E+03   -5.5770E+04  setid=       0
 node=    33 local x,y,z forces =    2.7141E+03   -5.6692E+03   -5.6742E+04  setid=       0
 node=    34 local x,y,z forces =    6.7363E+03   -5.6294E+03   -5.5360E+04  setid=       0
 node=    35 local x,y,z forces =    6.4397E+03   -5.6754E+03   -6.2872E+04  setid=       0
 node=    36 local x,y,z forces =    2.2023E+04   -2.8759E+03   -3.9852E+04  setid=       0
 node=    37 local x,y,z forces =   -2.1902E+04   -1.9918E+03   -3.9396E+04  setid=       0
 node=    38 local x,y,z forces =   -6.5133E+03   -3.9302E+03   -6.1808E+04  setid=       0
 node=    39 local x,y,z forces =   -6.8494E+03   -3.8833E+03   -5.4217E+04  setid=       0
 node=    40 local x,y,z forces =   -2.7765E+03   -3.8947E+03   -5.5639E+04  setid=       0
 node=    41 local x,y,z forces =    2.9104E-11   -3.9016E+03   -5.4677E+04  setid=       0
 node=    42 local x,y,z forces =    2.7765E+03   -3.8947E+03   -5.5639E+04  setid=       0
 node=    43 local x,y,z forces =    6.8494E+03   -3.8833E+03   -5.4217E+04  setid=       0
 node=    44 local x,y,z forces =    6.5133E+03   -3.9302E+03   -6.1808E+04  setid=       0
 node=    45 local x,y,z forces =    2.1902E+04   -1.9918E+03   -3.9396E+04  setid=       0
 node=    46 local x,y,z forces =   -2.1915E+04   -9.2046E+02   -3.9578E+04  setid=       0
 node=    47 local x,y,z forces =   -6.5564E+03   -1.8224E+03   -6.1988E+04  setid=       0
 node=    48 local x,y,z forces =   -6.9071E+03   -1.7826E+03   -5.4449E+04  setid=       0
 node=    49 local x,y,z forces =   -2.8175E+03   -1.7830E+03   -5.5786E+04  setid=       0
 node=    50 local x,y,z forces =    4.0018E-11   -1.7859E+03   -5.4933E+04  setid=       0
 node=    51 local x,y,z forces =    2.8175E+03   -1.7830E+03   -5.5786E+04  setid=       0
 node=    52 local x,y,z forces =    6.9071E+03   -1.7826E+03   -5.4449E+04  setid=       0
 node=    53 local x,y,z forces =    6.5564E+03   -1.8224E+03   -6.1988E+04  setid=       0
 node=    54 local x,y,z forces =    2.1915E+04   -9.2046E+02   -3.9578E+04  setid=       0
 node=    55 local x,y,z forces =   -2.1915E+04    7.2834E+00   -3.9471E+04  setid=       0
 node=    56 local x,y,z forces =   -6.5669E+03    1.2371E+01   -6.1638E+04  setid=       0
 node=    57 local x,y,z forces =   -6.9178E+03    9.7464E+00   -5.4185E+04  setid=       0
 node=    58 local x,y,z forces =   -2.8330E+03    8.8171E+00   -5.5432E+04  setid=       0
 node=    59 local x,y,z forces =    5.4570E-12    8.5026E+00   -5.4665E+04  setid=       0
 node=    60 local x,y,z forces =    2.8330E+03    8.8171E+00   -5.5432E+04  setid=       0
 node=    61 local x,y,z forces =    6.9178E+03    9.7464E+00   -5.4185E+04  setid=       0
 node=    62 local x,y,z forces =    6.5669E+03    1.2371E+01   -6.1638E+04  setid=       0
 node=    63 local x,y,z forces =    2.1915E+04    7.2834E+00   -3.9471E+04  setid=       0
 node=    64 local x,y,z forces =   -2.1902E+04    9.3469E+02   -3.9554E+04  setid=       0
 node=    65 local x,y,z forces =   -6.5526E+03    1.8465E+03   -6.1951E+04  setid=       0
 node=    66 local x,y,z forces =   -6.9031E+03    1.8016E+03   -5.4416E+04  setid=       0
 node=    67 local x,y,z forces =   -2.8159E+03    1.8001E+03   -5.5752E+04  setid=       0
 node=    68 local x,y,z forces =   -1.4552E-11    1.8023E+03   -5.4900E+04  setid=       0
 node=    69 local x,y,z forces =    2.8159E+03    1.8001E+03   -5.5752E+04  setid=       0
 node=    70 local x,y,z forces =    6.9031E+03    1.8016E+03   -5.4416E+04  setid=       0
 node=    71 local x,y,z forces =    6.5526E+03    1.8465E+03   -6.1951E+04  setid=       0
 node=    72 local x,y,z forces =    2.1902E+04    9.3469E+02   -3.9554E+04  setid=       0
 node=    73 local x,y,z forces =   -2.1876E+04    2.0045E+03   -3.9350E+04  setid=       0
 node=    74 local x,y,z forces =   -6.5058E+03    3.9511E+03   -6.1735E+04  setid=       0
 node=    75 local x,y,z forces =   -6.8417E+03    3.8990E+03   -5.4153E+04  setid=       0
 node=    76 local x,y,z forces =   -2.7733E+03    3.9085E+03   -5.5573E+04  setid=       0
 node=    77 local x,y,z forces =   -1.6371E-11    3.9148E+03   -5.4612E+04  setid=       0
 node=    78 local x,y,z forces =    2.7733E+03    3.9085E+03   -5.5573E+04  setid=       0
 node=    79 local x,y,z forces =    6.8417E+03    3.8990E+03   -5.4153E+04  setid=       0
 node=    80 local x,y,z forces =    6.5058E+03    3.9511E+03   -6.1735E+04  setid=       0
 node=    81 local x,y,z forces =    2.1876E+04    2.0045E+03   -3.9350E+04  setid=       0
 node=    82 local x,y,z forces =   -2.1984E+04    2.8863E+03   -3.9782E+04  setid=       0
 node=    83 local x,y,z forces =   -6.4286E+03    5.6921E+03   -6.2760E+04  setid=       0
 node=    84 local x,y,z forces =   -6.7248E+03    5.6411E+03   -5.5261E+04  setid=       0
 node=    85 local x,y,z forces =   -2.7095E+03    5.6790E+03   -5.6641E+04  setid=       0
 node=    86 local x,y,z forces =   -3.4561E-11    5.7000E+03   -5.5670E+04  setid=       0
 node=    87 local x,y,z forces =    2.7095E+03    5.6790E+03   -5.6641E+04  setid=       0
 node=    88 local x,y,z forces =    6.7248E+03    5.6411E+03   -5.5261E+04  setid=       0
 node=    89 local x,y,z forces =    6.4286E+03    5.6921E+03   -6.2760E+04  setid=       0
 node=    90 local x,y,z forces =    2.1984E+04    2.8863E+03   -3.9782E+04  setid=       0
 node=    91 local x,y,z forces =   -2.2106E+04    4.5639E+03   -3.9365E+04  setid=       0
 node=    92 local x,y,z forces =   -6.3096E+03    9.0695E+03   -6.2078E+04  setid=       0
 node=    93 local x,y,z forces =   -6.5555E+03    9.1130E+03   -5.4599E+04  setid=       0
 node=    94 local x,y,z forces =   -2.6294E+03    9.2342E+03   -5.5859E+04  setid=       0
 node=    95 local x,y,z forces =   -2.0009E-11    9.2805E+03   -5.4867E+04  setid=       0
 node=    96 local x,y,z forces =    2.6294E+03    9.2342E+03   -5.5859E+04  setid=       0
 node=    97 local x,y,z forces =    6.5555E+03    9.1130E+03   -5.4599E+04  setid=       0
 node=    98 local x,y,z forces =    6.3096E+03    9.0695E+03   -6.2078E+04  setid=       0
 node=    99 local x,y,z forces =    2.2106E+04    4.5639E+03   -3.9365E+04  setid=       0
 node=   100 local x,y,z forces =   -2.3731E+04    3.7361E+03   -4.4068E+04  setid=       0
 node=   101 local x,y,z forces =   -6.2292E+03    7.4492E+03   -7.1630E+04  setid=       0
 node=   102 local x,y,z forces =   -6.4582E+03    7.5500E+03   -6.4258E+04  setid=       0
 node=   103 local x,y,z forces =   -2.6046E+03    7.6735E+03   -6.5491E+04  setid=       0
 node=   104 local x,y,z forces =   -7.2760E-12    7.7120E+03   -6.4504E+04  setid=       0
 node=   105 local x,y,z forces =    2.6046E+03    7.6735E+03   -6.5491E+04  setid=       0
 node=   106 local x,y,z forces =    6.4582E+03    7.5500E+03   -6.4258E+04  setid=       0
 node=   107 local x,y,z forces =    6.2292E+03    7.4492E+03   -7.1630E+04  setid=       0
 node=   108 local x,y,z forces =    2.3731E+04    3.7361E+03   -4.4068E+04  setid=       0
 node=   109 local x,y,z forces =   -1.2763E+04    1.3113E+04   -2.6845E+04  setid=       0
 node=   110 local x,y,z forces =   -3.1351E+03    2.4898E+04   -4.5503E+04  setid=       0
 node=   111 local x,y,z forces =   -3.2412E+03    2.3773E+04   -4.1938E+04  setid=       0
 node=   112 local x,y,z forces =   -1.3136E+03    2.3784E+04   -4.2625E+04  setid=       0
 node=   113 local x,y,z forces =    0.0000E+00    2.3717E+04   -4.2163E+04  setid=       0
 node=   114 local x,y,z forces =    1.3136E+03    2.3784E+04   -4.2625E+04  setid=       0
 node=   115 local x,y,z forces =    3.2412E+03    2.3773E+04   -4.1938E+04  setid=       0
 node=   116 local x,y,z forces =    3.1351E+03    2.4898E+04   -4.5503E+04  setid=       0
 node=   117 local x,y,z forces =    1.2763E+04    1.3113E+04   -2.6845E+04  setid=       0
 node=  2863 local x,y,z forces =   -1.1973E+05    0.0000E+00    0.0000E+00  setid=       0
 node=  2871 local x,y,z forces =    1.1973E+05    0.0000E+00    0.0000E+00  setid=       0
 node=  2980 local x,y,z forces =   -1.8729E+05    0.0000E+00    0.0000E+00  setid=       0
 node=  2988 local x,y,z forces =    1.8729E+05    0.0000E+00    0.0000E+00  setid=       0
 node=  3097 local x,y,z forces =   -1.1973E+05    0.0000E+00    0.0000E+00  setid=       0
 node=  3105 local x,y,z forces =    1.1973E+05    0.0000E+00    0.0000E+00  setid=       0
 node=  5851 local x,y,z forces =   -1.2801E+04   -1.3147E+04    0.0000E+00  setid=       0
 node=  5852 local x,y,z forces =   -3.1455E+03   -2.4963E+04    0.0000E+00  setid=       0
 node=  5853 local x,y,z forces =   -3.2520E+03   -2.3837E+04    0.0000E+00  setid=       0
 node=  5854 local x,y,z forces =   -1.3180E+03   -2.3849E+04    0.0000E+00  setid=       0
 node=  5855 local x,y,z forces =    9.4587E-11   -2.3782E+04    0.0000E+00  setid=       0
 node=  5856 local x,y,z forces =    1.3180E+03   -2.3849E+04    0.0000E+00  setid=       0
 node=  5857 local x,y,z forces =    3.2520E+03   -2.3837E+04    0.0000E+00  setid=       0
 node=  5858 local x,y,z forces =    3.1455E+03   -2.4963E+04    0.0000E+00  setid=       0
 node=  5859 local x,y,z forces =    1.2801E+04   -1.3147E+04    0.0000E+00  setid=       0
 node=  5860 local x,y,z forces =   -2.3797E+04   -3.7336E+03    0.0000E+00  setid=       0
 node=  5861 local x,y,z forces =   -6.2472E+03   -7.4471E+03    0.0000E+00  setid=       0
 node=  5862 local x,y,z forces =   -6.4772E+03   -7.5515E+03    0.0000E+00  setid=       0
 node=  5863 local x,y,z forces =   -2.6124E+03   -7.6762E+03    0.0000E+00  setid=       0
 node=  5864 local x,y,z forces =    1.6917E-10   -7.7151E+03    0.0000E+00  setid=       0
 node=  5865 local x,y,z forces =    2.6124E+03   -7.6762E+03    0.0000E+00  setid=       0
 node=  5866 local x,y,z forces =    6.4772E+03   -7.5515E+03    0.0000E+00  setid=       0
 node=  5867 local x,y,z forces =    6.2472E+03   -7.4471E+03    0.0000E+00  setid=       0
 node=  5868 local x,y,z forces =    2.3797E+04   -3.7336E+03    0.0000E+00  setid=       0
 node=  5869 local x,y,z forces =   -2.2157E+04   -4.5584E+03    0.0000E+00  setid=       0
 node=  5870 local x,y,z forces =   -6.3238E+03   -9.0627E+03    0.0000E+00  setid=       0
 node=  5871 local x,y,z forces =   -6.5704E+03   -9.1114E+03    0.0000E+00  setid=       0
 node=  5872 local x,y,z forces =   -2.6355E+03   -9.2346E+03    0.0000E+00  setid=       0
 node=  5873 local x,y,z forces =    3.2924E-10   -9.2817E+03    0.0000E+00  setid=       0
 node=  5874 local x,y,z forces =    2.6355E+03   -9.2346E+03    0.0000E+00  setid=       0
 node=  5875 local x,y,z forces =    6.5704E+03   -9.1114E+03    0.0000E+00  setid=       0
 node=  5876 local x,y,z forces =    6.3238E+03   -9.0627E+03    0.0000E+00  setid=       0
 node=  5877 local x,y,z forces =    2.2157E+04   -4.5584E+03    0.0000E+00  setid=       0
 node=  5878 local x,y,z forces =   -2.2023E+04   -2.8759E+03    0.0000E+00  setid=       0
 node=  5879 local x,y,z forces =   -6.4397E+03   -5.6754E+03    0.0000E+00  setid=       0
 node=  5880 local x,y,z forces =   -6.7363E+03   -5.6294E+03    0.0000E+00  setid=       0
 node=  5881 local x,y,z forces =   -2.7141E+03   -5.6692E+03    0.0000E+00  setid=       0
 node=  5882 local x,y,z forces =    6.9667E-10   -5.6908E+03    0.0000E+00  setid=       0
 node=  5883 local x,y,z forces =    2.7141E+03   -5.6692E+03    0.0000E+00  setid=       0
 node=  5884 local x,y,z forces =    6.7363E+03   -5.6294E+03    0.0000E+00  setid=       0
 node=  5885 local x,y,z forces =    6.4397E+03   -5.6754E+03    0.0000E+00  setid=       0
 node=  5886 local x,y,z forces =    2.2023E+04   -2.8759E+03    0.0000E+00  setid=       0
 node=  5887 local x,y,z forces =   -2.1902E+04   -1.9918E+03    0.0000E+00  setid=       0
 node=  5888 local x,y,z forces =   -6.5133E+03   -3.9302E+03    0.0000E+00  setid=       0
 node=  5889 local x,y,z forces =   -6.8494E+03   -3.8833E+03    0.0000E+00  setid=       0
 node=  5890 local x,y,z forces =   -2.7765E+03   -3.8947E+03    0.0000E+00  setid=       0
 node=  5891 local x,y,z forces =    6.7303E-10   -3.9016E+03    0.0000E+00  setid=       0
 node=  5892 local x,y,z forces =    2.7765E+03   -3.8947E+03    0.0000E+00  setid=       0
 node=  5893 local x,y,z forces =    6.8494E+03   -3.8833E+03    0.0000E+00  setid=       0
 node=  5894 local x,y,z forces =    6.5133E+03   -3.9302E+03    0.0000E+00  setid=       0
 node=  5895 local x,y,z forces =    2.1902E+04   -1.9918E+03    0.0000E+00  setid=       0
 node=  5896 local x,y,z forces =   -2.1915E+04   -9.2046E+02    0.0000E+00  setid=       0
 node=  5897 local x,y,z forces =   -6.5564E+03   -1.8224E+03    0.0000E+00  setid=       0
 node=  5898 local x,y,z forces =   -6.9071E+03   -1.7826E+03    0.0000E+00  setid=       0
 node=  5899 local x,y,z forces =   -2.8175E+03   -1.7830E+03    0.0000E+00  setid=       0
 node=  5900 local x,y,z forces =   -5.4570E-11   -1.7859E+03    0.0000E+00  setid=       0
 node=  5901 local x,y,z forces =    2.8175E+03   -1.7830E+03    0.0000E+00  setid=       0
 node=  5902 local x,y,z forces =    6.9071E+03   -1.7826E+03    0.0000E+00  setid=       0
 node=  5903 local x,y,z forces =    6.5564E+03   -1.8224E+03    0.0000E+00  setid=       0
 node=  5904 local x,y,z forces =    2.1915E+04   -9.2046E+02    0.0000E+00  setid=       0
 node=  5905 local x,y,z forces =   -2.1915E+04    7.2834E+00    0.0000E+00  setid=       0
 node=  5906 local x,y,z forces =   -6.5669E+03    1.2371E+01    0.0000E+00  setid=       0
 node=  5907 local x,y,z forces =   -6.9178E+03    9.7464E+00    0.0000E+00  setid=       0
 node=  5908 local x,y,z forces =   -2.8330E+03    8.8171E+00    0.0000E+00  setid=       0
 node=  5909 local x,y,z forces =   -3.7653E-10    8.5026E+00    0.0000E+00  setid=       0
 node=  5910 local x,y,z forces =    2.8330E+03    8.8171E+00    0.0000E+00  setid=       0
 node=  5911 local x,y,z forces =    6.9178E+03    9.7464E+00    0.0000E+00  setid=       0
 node=  5912 local x,y,z forces =    6.5669E+03    1.2371E+01    0.0000E+00  setid=       0
 node=  5913 local x,y,z forces =    2.1915E+04    7.2834E+00    0.0000E+00  setid=       0
 node=  5914 local x,y,z forces =   -2.1902E+04    9.3469E+02    0.0000E+00  setid=       0
 node=  5915 local x,y,z forces =   -6.5526E+03    1.8465E+03    0.0000E+00  setid=       0
 node=  5916 local x,y,z forces =   -6.9031E+03    1.8016E+03    0.0000E+00  setid=       0
 node=  5917 local x,y,z forces =   -2.8159E+03    1.8001E+03    0.0000E+00  setid=       0
 node=  5918 local x,y,z forces =   -7.5124E-10    1.8023E+03    0.0000E+00  setid=       0
 node=  5919 local x,y,z forces =    2.8159E+03    1.8001E+03    0.0000E+00  setid=       0
 node=  5920 local x,y,z forces =    6.9031E+03    1.8016E+03    0.0000E+00  setid=       0
 node=  5921 local x,y,z forces =    6.5526E+03    1.8465E+03    0.0000E+00  setid=       0
 node=  5922 local x,y,z forces =    2.1902E+04    9.3469E+02    0.0000E+00  setid=       0
 node=  5923 local x,y,z forces =   -2.1876E+04    2.0045E+03    0.0000E+00  setid=       0
 node=  5924 local x,y,z forces =   -6.5058E+03    3.9511E+03    0.0000E+00  setid=       0
 node=  5925 local x,y,z forces =   -6.8417E+03    3.8990E+03    0.0000E+00  setid=       0
 node=  5926 local x,y,z forces =   -2.7733E+03    3.9085E+03    0.0000E+00  setid=       0
 node=  5927 local x,y,z forces =   -3.3469E-10    3.9148E+03    0.0000E+00  setid=       0
 node=  5928 local x,y,z forces =    2.7733E+03    3.9085E+03    0.0000E+00  setid=       0
 node=  5929 local x,y,z forces =    6.8417E+03    3.8990E+03    0.0000E+00  setid=       0
 node=  5930 local x,y,z forces =    6.5058E+03    3.9511E+03    0.0000E+00  setid=       0
 node=  5931 local x,y,z forces =    2.1876E+04    2.0045E+03    0.0000E+00  setid=       0
 node=  5932 local x,y,z forces =   -2.1984E+04    2.8863E+03    0.0000E+00  setid=       0
 node=  5933 local x,y,z forces =   -6.4286E+03    5.6921E+03    0.0000E+00  setid=       0
 node=  5934 local x,y,z forces =   -6.7248E+03    5.6411E+03    0.0000E+00  setid=       0
 node=  5935 local x,y,z forces =   -2.7095E+03    5.6790E+03    0.0000E+00  setid=       0
 node=  5936 local x,y,z forces =    5.4933E-10    5.7000E+03    0.0000E+00  setid=       0
 node=  5937 local x,y,z forces =    2.7095E+03    5.6790E+03    0.0000E+00  setid=       0
 node=  5938 local x,y,z forces =    6.7248E+03    5.6411E+03    0.0000E+00  setid=       0
 node=  5939 local x,y,z forces =    6.4286E+03    5.6921E+03    0.0000E+00  setid=       0
 node=  5940 local x,y,z forces =    2.1984E+04    2.8863E+03    0.0000E+00  setid=       0
 node=  5941 local x,y,z forces =   -2.2106E+04    4.5639E+03    0.0000E+00  setid=       0
 node=  5942 local x,y,z forces =   -6.3096E+03    9.0695E+03    0.0000E+00  setid=       0
 node=  5943 local x,y,z forces =   -6.5555E+03    9.1130E+03    0.0000E+00  setid=       0
 node=  5944 local x,y,z forces =   -2.6294E+03    9.2342E+03    0.0000E+00  setid=       0
 node=  5945 local x,y,z forces =   -1.3642E-10    9.2805E+03    0.0000E+00  setid=       0
 node=  5946 local x,y,z forces =    2.6294E+03    9.2342E+03    0.0000E+00  setid=       0
 node=  5947 local x,y,z forces =    6.5555E+03    9.1130E+03    0.0000E+00  setid=       0
 node=  5948 local x,y,z forces =    6.3096E+03    9.0695E+03    0.0000E+00  setid=       0
 node=  5949 local x,y,z forces =    2.2106E+04    4.5639E+03    0.0000E+00  setid=       0
 node=  5950 local x,y,z forces =   -2.3731E+04    3.7361E+03    0.0000E+00  setid=       0
 node=  5951 local x,y,z forces =   -6.2292E+03    7.4492E+03    0.0000E+00  setid=       0
 node=  5952 local x,y,z forces =   -6.4582E+03    7.5500E+03    0.0000E+00  setid=       0
 node=  5953 local x,y,z forces =   -2.6046E+03    7.6735E+03    0.0000E+00  setid=       0
 node=  5954 local x,y,z forces =   -3.4197E-10    7.7120E+03    0.0000E+00  setid=       0
 node=  5955 local x,y,z forces =    2.6046E+03    7.6735E+03    0.0000E+00  setid=       0
 node=  5956 local x,y,z forces =    6.4582E+03    7.5500E+03    0.0000E+00  setid=       0
 node=  5957 local x,y,z forces =    6.2292E+03    7.4492E+03    0.0000E+00  setid=       0
 node=  5958 local x,y,z forces =    2.3731E+04    3.7361E+03    0.0000E+00  setid=       0
 node=  5959 local x,y,z forces =   -1.2763E+04    1.3113E+04    0.0000E+00  setid=       0
 node=  5960 local x,y,z forces =   -3.1351E+03    2.4898E+04    0.0000E+00  setid=       0
 node=  5961 local x,y,z forces =   -3.2412E+03    2.3773E+04    0.0000E+00  setid=       0
 node=  5962 local x,y,z forces =   -1.3136E+03    2.3784E+04    0.0000E+00  setid=       0
 node=  5963 local x,y,z forces =    1.8190E-11    2.3717E+04    0.0000E+00  setid=       0
 node=  5964 local x,y,z forces =    1.3136E+03    2.3784E+04    0.0000E+00  setid=       0
 node=  5965 local x,y,z forces =    3.2412E+03    2.3773E+04    0.0000E+00  setid=       0
 node=  5966 local x,y,z forces =    3.1351E+03    2.4898E+04    0.0000E+00  setid=       0
 node=  5967 local x,y,z forces =    1.2763E+04    1.3113E+04    0.0000E+00  setid=       0
             force resultants   =   -1.3770E-09    1.3238E-01   -6.1396E+06
 output at time =   6.00000E-04
 node=     1 local x,y,z forces =   -1.9204E+04   -1.9722E+04   -4.0398E+04  setid=       0
 node=     2 local x,y,z forces =   -4.7178E+03   -3.7447E+04   -6.8473E+04  setid=       0
 node=     3 local x,y,z forces =   -4.8791E+03   -3.5758E+04   -6.3109E+04  setid=       0
 node=     4 local x,y,z forces =   -1.9773E+03   -3.5776E+04   -6.4147E+04  setid=       0
 node=     5 local x,y,z forces =   -7.2760E-12   -3.5676E+04   -6.3451E+04  setid=       0
 node=     6 local x,y,z forces =    1.9773E+03   -3.5776E+04   -6.4147E+04  setid=       0
 node=     7 local x,y,z forces =    4.8791E+03   -3.5758E+04   -6.3109E+04  setid=       0
 node=     8 local x,y,z forces =    4.7178E+03   -3.7447E+04   -6.8473E+04  setid=       0
 node=     9 local x,y,z forces =    1.9204E+04   -1.9722E+04   -4.0398E+04  setid=       0
 node=    10 local x,y,z forces =   -3.5700E+04   -5.5988E+03   -6.6313E+04  setid=       0
 node=    11 local x,y,z forces =   -9.3701E+03   -1.1168E+04   -1.0778E+05  setid=       0
 node=    12 local x,y,z forces =   -9.7180E+03   -1.1325E+04   -9.6686E+04  setid=       0
 node=    13 local x,y,z forces =   -3.9192E+03   -1.1512E+04   -9.8545E+04  setid=       0
 node=    14 local x,y,z forces =   -1.8190E-11   -1.1570E+04   -9.7060E+04  setid=       0
 node=    15 local x,y,z forces =    3.9192E+03   -1.1512E+04   -9.8545E+04  setid=       0
 node=    16 local x,y,z forces =    9.7180E+03   -1.1325E+04   -9.6686E+04  setid=       0
 node=    17 local x,y,z forces =    9.3701E+03   -1.1168E+04   -1.0778E+05  setid=       0
 node=    18 local x,y,z forces =    3.5700E+04   -5.5988E+03   -6.6313E+04  setid=       0
 node=    19 local x,y,z forces =   -3.3238E+04   -6.8378E+03   -5.9210E+04  setid=       0
 node=    20 local x,y,z forces =   -9.4849E+03   -1.3595E+04   -9.3368E+04  setid=       0
 node=    21 local x,y,z forces =   -9.8576E+03   -1.3668E+04   -8.2114E+04  setid=       0
 node=    22 local x,y,z forces =   -3.9537E+03   -1.3853E+04   -8.4010E+04  setid=       0
 node=    23 local x,y,z forces =    7.2760E-12   -1.3924E+04   -8.2518E+04  setid=       0
 node=    24 local x,y,z forces =    3.9537E+03   -1.3853E+04   -8.4010E+04  setid=       0
 node=    25 local x,y,z forces =    9.8576E+03   -1.3668E+04   -8.2114E+04  setid=       0
 node=    26 local x,y,z forces =    9.4849E+03   -1.3595E+04   -9.3368E+04  setid=       0
 node=    27 local x,y,z forces =    3.3238E+04   -6.8378E+03   -5.9210E+04  setid=       0
 node=    28 local x,y,z forces =   -3.3036E+04   -4.3135E+03   -5.9802E+04  setid=       0
 node=    29 local x,y,z forces =   -9.6585E+03   -8.5126E+03   -9.4338E+04  setid=       0
 node=    30 local x,y,z forces =   -1.0106E+04   -8.4438E+03   -8.3063E+04  setid=       0
 node=    31 local x,y,z forces =   -4.0716E+03   -8.5035E+03   -8.5137E+04  setid=       0
 node=    32 local x,y,z forces =    6.5484E-11   -8.5360E+03   -8.3678E+04  setid=       0
 node=    33 local x,y,z forces =    4.0716E+03   -8.5035E+03   -8.5137E+04  setid=       0
 node=    34 local x,y,z forces =    1.0106E+04   -8.4438E+03   -8.3063E+04  setid=       0
 node=    35 local x,y,z forces =    9.6585E+03   -8.5126E+03   -9.4338E+04  setid=       0
 node=    36 local x,y,z forces =    3.3036E+04   -4.3135E+03   -5.9802E+04  setid=       0
 node=    37 local x,y,z forces =   -3.2854E+04   -2.9874E+03   -5.9117E+04  setid=       0
 node=    38 local x,y,z forces =   -9.7688E+03   -5.8948E+03   -9.2740E+04  setid=       0
 node=    39 local x,y,z forces =   -1.0276E+04   -5.8247E+03   -8.1346E+04  setid=       0
 node=    40 local x,y,z forces =   -4.1651E+03   -5.8418E+03   -8.3479E+04  setid=       0
 node=    41 local x,y,z forces =    1.8190E-11   -5.8521E+03   -8.2035E+04  setid=       0
 node=    42 local x,y,z forces =    4.1651E+03   -5.8418E+03   -8.3479E+04  setid=       0
 node=    43 local x,y,z forces =    1.0276E+04   -5.8247E+03   -8.1346E+04  setid=       0
 node=    44 local x,y,z forces =    9.7688E+03   -5.8948E+03   -9.2740E+04  setid=       0
 node=    45 local x,y,z forces =    3.2854E+04   -2.9874E+03   -5.9117E+04  setid=       0
 node=    46 local x,y,z forces =   -3.2873E+04   -1.3801E+03   -5.9388E+04  setid=       0
 node=    47 local x,y,z forces =   -9.8331E+03   -2.7327E+03   -9.3009E+04  setid=       0
 node=    48 local x,y,z forces =   -1.0362E+04   -2.6732E+03   -8.1692E+04  setid=       0
 node=    49 local x,y,z forces =   -4.2265E+03   -2.6739E+03   -8.3698E+04  setid=       0
 node=    50 local x,y,z forces =   -1.8190E-11   -2.6782E+03   -8.2417E+04  setid=       0
 node=    51 local x,y,z forces =    4.2265E+03   -2.6739E+03   -8.3698E+04  setid=       0
 node=    52 local x,y,z forces =    1.0362E+04   -2.6732E+03   -8.1692E+04  setid=       0
 node=    53 local x,y,z forces =    9.8331E+03   -2.7327E+03   -9.3009E+04  setid=       0
 node=    54 local x,y,z forces =    3.2873E+04   -1.3801E+03   -5.9388E+04  setid=       0
 node=    55 local x,y,z forces =   -3.2872E+04    1.1610E+01   -5.9226E+04  setid=       0
 node=    56 local x,y,z forces =   -9.8488E+03    1.9716E+01   -9.2480E+04  setid=       0
 node=    57 local x,y,z forces =   -1.0378E+04    1.5522E+01   -8.1294E+04  setid=       0
 node=    58 local x,y,z forces =   -4.2497E+03    1.4045E+01   -8.3165E+04  setid=       0
 node=    59 local x,y,z forces =    3.6380E-12    1.3542E+01   -8.2014E+04  setid=       0
 node=    60 local x,y,z forces =    4.2497E+03    1.4045E+01   -8.3165E+04  setid=       0
 node=    61 local x,y,z forces =    1.0378E+04    1.5522E+01   -8.1294E+04  setid=       0
 node=    62 local x,y,z forces =    9.8488E+03    1.9716E+01   -9.2480E+04  setid=       0
 node=    63 local x,y,z forces =    3.2872E+04    1.1610E+01   -5.9226E+04  setid=       0
 node=    64 local x,y,z forces =   -3.2852E+04    1.4028E+03   -5.9351E+04  setid=       0
 node=    65 local x,y,z forces =   -9.8271E+03    2.7711E+03   -9.2950E+04  setid=       0
 node=    66 local x,y,z forces =   -1.0356E+04    2.7033E+03   -8.1640E+04  setid=       0
 node=    67 local x,y,z forces =   -4.2240E+03    2.7010E+03   -8.3644E+04  setid=       0
 node=    68 local x,y,z forces =    3.6380E-11    2.7043E+03   -8.2364E+04  setid=       0
 node=    69 local x,y,z forces =    4.2240E+03    2.7010E+03   -8.3644E+04  setid=       0
 node=    70 local x,y,z forces =    1.0356E+04    2.7033E+03   -8.1640E+04  setid=       0
 node=    71 local x,y,z forces =    9.8271E+03    2.7711E+03   -9.2950E+04  setid=       0
 node=    72 local x,y,z forces =    3.2852E+04    1.4028E+03   -5.9351E+04  setid=       0
 node=    73 local x,y,z forces =   -3.2812E+04    3.0076E+03   -5.9043E+04  setid=       0
 node=    74 local x,y,z forces =   -9.7569E+03    5.9282E+03   -9.2623E+04  setid=       0
 node=    75 local x,y,z forces =   -1.0263E+04    5.8497E+03   -8.1242E+04  setid=       0
 node=    76 local x,y,z forces =   -4.1601E+03    5.8639E+03   -8.3373E+04  setid=       0
 node=    77 local x,y,z forces =    1.8190E-11    5.8732E+03   -8.1931E+04  setid=       0
 node=    78 local x,y,z forces =    4.1601E+03    5.8639E+03   -8.3373E+04  setid=       0
 node=    79 local x,y,z forces =    1.0263E+04    5.8497E+03   -8.1242E+04  setid=       0
 node=    80 local x,y,z forces =    9.7569E+03    5.9282E+03   -9.2623E+04  setid=       0
 node=    81 local x,y,z forces =    3.2812E+04    3.0076E+03   -5.9043E+04  setid=       0
 node=    82 local x,y,z forces =   -3.2974E+04    4.3301E+03   -5.9691E+04  setid=       0
 node=    83 local x,y,z forces =   -9.6409E+03    8.5392E+03   -9.4161E+04  setid=       0
 node=    84 local x,y,z forces =   -1.0088E+04    8.4625E+03   -8.2905E+04  setid=       0
 node=    85 local x,y,z forces =   -4.0642E+03    8.5192E+03   -8.4975E+04  setid=       0
 node=    86 local x,y,z forces =   -2.5466E-11    8.5506E+03   -8.3519E+04  setid=       0
 node=    87 local x,y,z forces =    4.0642E+03    8.5192E+03   -8.4975E+04  setid=       0
 node=    88 local x,y,z forces =    1.0088E+04    8.4625E+03   -8.2905E+04  setid=       0
 node=    89 local x,y,z forces =    9.6409E+03    8.5392E+03   -9.4161E+04  setid=       0
 node=    90 local x,y,z forces =    3.2974E+04    4.3301E+03   -5.9691E+04  setid=       0
 node=    91 local x,y,z forces =   -3.3156E+04    6.8466E+03   -5.9064E+04  setid=       0
 node=    92 local x,y,z forces =   -9.4622E+03    1.3606E+04   -9.3136E+04  setid=       0
 node=    93 local x,y,z forces =   -9.8338E+03    1.3671E+04   -8.1910E+04  setid=       0
 node=    94 local x,y,z forces =   -3.9440E+03    1.3852E+04   -8.3801E+04  setid=       0
 node=    95 local x,y,z forces =    3.6380E-12    1.3922E+04   -8.2312E+04  setid=       0
 node=    96 local x,y,z forces =    3.9440E+03    1.3852E+04   -8.3801E+04  setid=       0
 node=    97 local x,y,z forces =    9.8338E+03    1.3671E+04   -8.1910E+04  setid=       0
 node=    98 local x,y,z forces =    9.4622E+03    1.3606E+04   -9.3136E+04  setid=       0
 node=    99 local x,y,z forces =    3.3156E+04    6.8466E+03   -5.9064E+04  setid=       0
 node=   100 local x,y,z forces =   -3.5595E+04    5.6029E+03   -6.6122E+04  setid=       0
 node=   101 local x,y,z forces =   -9.3414E+03    1.1171E+04   -1.0747E+05  setid=       0
 node=   102 local x,y,z forces =   -9.6877E+03    1.1322E+04   -9.6406E+04  setid=       0
 node=   103 local x,y,z forces =   -3.9066E+03    1.1508E+04   -9.8256E+04  setid=       0
 node=   104 local x,y,z forces =    1.4552E-11    1.1565E+04   -9.6774E+04  setid=       0
 node=   105 local x,y,z forces =    3.9066E+03    1.1508E+04   -9.8256E+04  setid=       0
 node=   106 local x,y,z forces =    9.6877E+03    1.1322E+04   -9.6406E+04  setid=       0
 node=   107 local x,y,z forces =    9.3414E+03    1.1171E+04   -1.0747E+05  setid=       0
 node=   108 local x,y,z forces =    3.5595E+04    5.6029E+03   -6.6122E+04  setid=       0
 node=   109 local x,y,z forces =   -1.9144E+04    1.9668E+04   -4.0281E+04  setid=       0
 node=   110 local x,y,z forces =   -4.7012E+03    3.7344E+04   -6.8276E+04  setid=       0
 node=   111 local x,y,z forces =   -4.8619E+03    3.5656E+04   -6.2925E+04  setid=       0
 node=   112 local x,y,z forces =   -1.9702E+03    3.5673E+04   -6.3955E+04  setid=       0
 node=   113 local x,y,z forces =    0.0000E+00    3.5572E+04   -6.3261E+04  setid=       0
 node=   114 local x,y,z forces =    1.9702E+03    3.5673E+04   -6.3955E+04  setid=       0
 node=   115 local x,y,z forces =    4.8619E+03    3.5656E+04   -6.2925E+04  setid=       0
 node=   116 local x,y,z forces =    4.7012E+03    3.7344E+04   -6.8276E+04  setid=       0
 node=   117 local x,y,z forces =    1.9144E+04    1.9668E+04   -4.0281E+04  setid=       0
 node=  2863 local x,y,z forces =   -1.7958E+05    0.0000E+00    0.0000E+00  setid=       0
 node=  2871 local x,y,z forces =    1.7958E+05    0.0000E+00    0.0000E+00  setid=       0
 node=  2980 local x,y,z forces =   -2.8090E+05    0.0000E+00    0.0000E+00  setid=       0
 node=  2988 local x,y,z forces =    2.8090E+05    0.0000E+00    0.0000E+00  setid=       0
 node=  3097 local x,y,z forces =   -1.7958E+05    0.0000E+00    0.0000E+00  setid=       0
 node=  3105 local x,y,z forces =    1.7958E+05    0.0000E+00    0.0000E+00  setid=       0
 node=  5851 local x,y,z forces =   -1.9204E+04   -1.9722E+04    0.0000E+00  setid=       0
 node=  5852 local x,y,z forces =   -4.7178E+03   -3.7447E+04    0.0000E+00  setid=       0
 node=  5853 local x,y,z forces =   -4.8791E+03   -3.5758E+04    0.0000E+00  setid=       0
 node=  5854 local x,y,z forces =   -1.9773E+03   -3.5776E+04    0.0000E+00  setid=       0
 node=  5855 local x,y,z forces =    3.2742E-10   -3.5676E+04    0.0000E+00  setid=       0
 node=  5856 local x,y,z forces =    1.9773E+03   -3.5776E+04    0.0000E+00  setid=       0
 node=  5857 local x,y,z forces =    4.8791E+03   -3.5758E+04    0.0000E+00  setid=       0
[...]
 node=    27 local x,y,z forces =    1.1610E+06    8.3842E+04   -2.1311E+06  setid=       0
 node=    28 local x,y,z forces =   -9.2766E+05    1.9166E+05   -1.7069E+06  setid=       0
 node=    29 local x,y,z forces =   -2.5904E+05    2.9525E+05   -2.6827E+06  setid=       0
 node=    30 local x,y,z forces =   -2.8004E+05    1.8107E+05   -2.3627E+06  setid=       0
 node=    31 local x,y,z forces =   -1.1175E+05    1.5494E+05   -2.4224E+06  setid=       0
 node=    32 local x,y,z forces =    8.1491E-10    1.3767E+05   -2.3816E+06  setid=       0
 node=    33 local x,y,z forces =    1.1175E+05    1.5494E+05   -2.4224E+06  setid=       0
 node=    34 local x,y,z forces =    2.8004E+05    1.8107E+05   -2.3627E+06  setid=       0
 node=    35 local x,y,z forces =    2.5904E+05    2.9525E+05   -2.6827E+06  setid=       0
 node=    36 local x,y,z forces =    9.2766E+05    1.9166E+05   -1.7069E+06  setid=       0
 node=    37 local x,y,z forces =   -6.8579E+05    2.3307E+05   -1.2462E+06  setid=       0
 node=    38 local x,y,z forces =   -1.9548E+05    3.7747E+05   -1.9461E+06  setid=       0
 node=    39 local x,y,z forces =   -2.1197E+05    2.6441E+05   -1.7061E+06  setid=       0
 node=    40 local x,y,z forces =   -8.4852E+04    2.3599E+05   -1.7510E+06  setid=       0
 node=    41 local x,y,z forces =   -9.3132E-10    2.2008E+05   -1.7207E+06  setid=       0
 node=    42 local x,y,z forces =    8.4852E+04    2.3599E+05   -1.7510E+06  setid=       0
 node=    43 local x,y,z forces =    2.1197E+05    2.6441E+05   -1.7061E+06  setid=       0
 node=    44 local x,y,z forces =    1.9548E+05    3.7747E+05   -1.9461E+06  setid=       0
 node=    45 local x,y,z forces =    6.8579E+05    2.3307E+05   -1.2462E+06  setid=       0
 node=    46 local x,y,z forces =   -4.4528E+05    2.6718E+05   -8.0359E+05  setid=       0
 node=    47 local x,y,z forces =   -1.2836E+05    4.4841E+05   -1.2506E+06  setid=       0
 node=    48 local x,y,z forces =   -1.4018E+05    3.4063E+05   -1.0954E+06  setid=       0
 node=    49 local x,y,z forces =   -5.6400E+04    3.1034E+05   -1.1246E+06  setid=       0
 node=    50 local x,y,z forces =   -3.4925E-10    2.9634E+05   -1.1061E+06  setid=       0
 node=    51 local x,y,z forces =    5.6400E+04    3.1034E+05   -1.1246E+06  setid=       0
 node=    52 local x,y,z forces =    1.4018E+05    3.4063E+05   -1.0954E+06  setid=       0
 node=    53 local x,y,z forces =    1.2836E+05    4.4841E+05   -1.2506E+06  setid=       0
 node=    54 local x,y,z forces =    4.4528E+05    2.6718E+05   -8.0359E+05  setid=       0
 node=    55 local x,y,z forces =   -2.0219E+05    2.7442E+05   -3.5820E+05  setid=       0
 node=    56 local x,y,z forces =   -5.8417E+04    4.6500E+05   -5.4762E+05  setid=       0
 node=    57 local x,y,z forces =   -6.6250E+04    3.6153E+05   -4.7558E+05  setid=       0
 node=    58 local x,y,z forces =   -2.6784E+04    3.2832E+05   -4.8825E+05  setid=       0
 node=    59 local x,y,z forces =   -1.7317E-09    3.1564E+05   -4.8092E+05  setid=       0
 node=    60 local x,y,z forces =    2.6784E+04    3.2832E+05   -4.8825E+05  setid=       0
 node=    61 local x,y,z forces =    6.6250E+04    3.6153E+05   -4.7558E+05  setid=       0
 node=    62 local x,y,z forces =    5.8417E+04    4.6500E+05   -5.4762E+05  setid=       0
 node=    63 local x,y,z forces =    2.0219E+05    2.7442E+05   -3.5820E+05  setid=       0
 node=    64 local x,y,z forces =    4.1894E+04    2.6930E+05    8.2489E+04  setid=       0
 node=    65 local x,y,z forces =    1.2597E+04    4.5844E+05    1.4727E+05  setid=       0
 node=    66 local x,y,z forces =    7.9494E+03    3.6071E+05    1.3961E+05  setid=       0
 node=    67 local x,y,z forces =    3.2479E+03    3.2509E+05    1.4181E+05  setid=       0
 node=    68 local x,y,z forces =    5.5297E-10    3.1364E+05    1.3985E+05  setid=       0
 node=    69 local x,y,z forces =   -3.2479E+03    3.2509E+05    1.4181E+05  setid=       0
 node=    70 local x,y,z forces =   -7.9494E+03    3.6071E+05    1.3961E+05  setid=       0
 node=    71 local x,y,z forces =   -1.2597E+04    4.5844E+05    1.4727E+05  setid=       0
 node=    72 local x,y,z forces =   -4.1894E+04    2.6930E+05    8.2489E+04  setid=       0
 node=    73 local x,y,z forces =    2.8631E+05    2.4290E+05    5.1206E+05  setid=       0
 node=    74 local x,y,z forces =    8.3204E+04    4.0925E+05    8.2531E+05  setid=       0
 node=    75 local x,y,z forces =    8.0909E+04    3.1716E+05    7.3916E+05  setid=       0
 node=    76 local x,y,z forces =    3.2885E+04    2.7862E+05    7.5467E+05  setid=       0
 node=    77 local x,y,z forces =    4.0745E-10    2.6795E+05    7.4371E+05  setid=       0
 node=    78 local x,y,z forces =   -3.2885E+04    2.7862E+05    7.5467E+05  setid=       0
 node=    79 local x,y,z forces =   -8.0909E+04    3.1716E+05    7.3916E+05  setid=       0
 node=    80 local x,y,z forces =   -8.3204E+04    4.0925E+05    8.2531E+05  setid=       0
 node=    81 local x,y,z forces =   -2.8631E+05    2.4290E+05    5.1206E+05  setid=       0
 node=    82 local x,y,z forces =    5.3167E+05    2.0269E+05    9.4735E+05  setid=       0
 node=    83 local x,y,z forces =    1.5250E+05    3.3378E+05    1.5264E+06  setid=       0
 node=    84 local x,y,z forces =    1.5168E+05    2.4933E+05    1.3677E+06  setid=       0
 node=    85 local x,y,z forces =    6.1552E+04    2.0801E+05    1.3984E+06  setid=       0
 node=    86 local x,y,z forces =   -9.8953E-10    1.9829E+05    1.3784E+06  setid=       0
 node=    87 local x,y,z forces =   -6.1552E+04    2.0801E+05    1.3984E+06  setid=       0
 node=    88 local x,y,z forces =   -1.5168E+05    2.4933E+05    1.3677E+06  setid=       0
 node=    89 local x,y,z forces =   -1.5250E+05    3.3378E+05    1.5264E+06  setid=       0
 node=    90 local x,y,z forces =   -5.3167E+05    2.0269E+05    9.4735E+05  setid=       0
 node=    91 local x,y,z forces =    7.7349E+05    1.2611E+05    1.3407E+06  setid=       0
 node=    92 local x,y,z forces =    2.1737E+05    1.8417E+05    2.1496E+06  setid=       0
 node=    93 local x,y,z forces =    2.1865E+05    1.0279E+05    1.9136E+06  setid=       0
 node=    94 local x,y,z forces =    9.0406E+04    5.7890E+04    1.9546E+06  setid=       0
 node=    95 local x,y,z forces =   -1.5134E-09    4.9595E+04    1.9259E+06  setid=       0
 node=    96 local x,y,z forces =   -9.0406E+04    5.7890E+04    1.9546E+06  setid=       0
 node=    97 local x,y,z forces =   -2.1865E+05    1.0279E+05    1.9136E+06  setid=       0
 node=    98 local x,y,z forces =   -2.1737E+05    1.8417E+05    2.1496E+06  setid=       0
 node=    99 local x,y,z forces =   -7.7349E+05    1.2611E+05    1.3407E+06  setid=       0
 node=   100 local x,y,z forces =    1.0384E+06    5.6866E+04    1.8355E+06  setid=       0
 node=   101 local x,y,z forces =    2.9014E+05    6.2243E+04    3.0119E+06  setid=       0
 node=   102 local x,y,z forces =    2.9631E+05    6.3664E+03    2.7510E+06  setid=       0
 node=   103 local x,y,z forces =    1.2410E+05   -2.7436E+04    2.8337E+06  setid=       0
 node=   104 local x,y,z forces =   -2.6776E-09   -3.1059E+04    2.8072E+06  setid=       0
 node=   105 local x,y,z forces =   -1.2410E+05   -2.7436E+04    2.8337E+06  setid=       0
 node=   106 local x,y,z forces =   -2.9631E+05    6.3664E+03    2.7510E+06  setid=       0
 node=   107 local x,y,z forces =   -2.9014E+05    6.2243E+04    3.0119E+06  setid=       0
 node=   108 local x,y,z forces =   -1.0384E+06    5.6866E+04    1.8355E+06  setid=       0
 node=   109 local x,y,z forces =    5.9267E+05   -5.2277E+05    1.0900E+06  setid=       0
 node=   110 local x,y,z forces =    1.6154E+05   -1.0069E+06    1.8481E+06  setid=       0
 node=   111 local x,y,z forces =    1.7006E+05   -9.8597E+05    1.7476E+06  setid=       0
 node=   112 local x,y,z forces =    7.1180E+04   -1.0131E+06    1.8124E+06  setid=       0
 node=   113 local x,y,z forces =   -2.4447E-09   -1.0148E+06    1.8045E+06  setid=       0
 node=   114 local x,y,z forces =   -7.1180E+04   -1.0131E+06    1.8124E+06  setid=       0
 node=   115 local x,y,z forces =   -1.7006E+05   -9.8597E+05    1.7476E+06  setid=       0
 node=   116 local x,y,z forces =   -1.6154E+05   -1.0069E+06    1.8481E+06  setid=       0
 node=   117 local x,y,z forces =   -5.9267E+05   -5.2277E+05    1.0900E+06  setid=       0
 node=  2863 local x,y,z forces =   -1.1428E+06    0.0000E+00    0.0000E+00  setid=       0
 node=  2871 local x,y,z forces =    1.1428E+06    0.0000E+00    0.0000E+00  setid=       0
 node=  2980 local x,y,z forces =   -1.7876E+06    0.0000E+00    0.0000E+00  setid=       0
 node=  2988 local x,y,z forces =    1.7876E+06    0.0000E+00    0.0000E+00  setid=       0
 node=  3097 local x,y,z forces =   -1.1428E+06    0.0000E+00    0.0000E+00  setid=       0
 node=  3105 local x,y,z forces =    1.1428E+06    0.0000E+00    0.0000E+00  setid=       0
 node=  5851 local x,y,z forces =   -8.1552E+05   -7.3334E+05    0.0000E+00  setid=       0
 node=  5852 local x,y,z forces =   -2.2383E+05   -1.4114E+06    0.0000E+00  setid=       0
 node=  5853 local x,y,z forces =   -2.3397E+05   -1.3923E+06    0.0000E+00  setid=       0
 node=  5854 local x,y,z forces =   -9.6516E+04   -1.4088E+06    0.0000E+00  setid=       0
 node=  5855 local x,y,z forces =    1.0477E-09   -1.4157E+06    0.0000E+00  setid=       0
 node=  5856 local x,y,z forces =    9.6516E+04   -1.4088E+06    0.0000E+00  setid=       0
 node=  5857 local x,y,z forces =    2.3397E+05   -1.3923E+06    0.0000E+00  setid=       0
 node=  5858 local x,y,z forces =    2.2383E+05   -1.4114E+06    0.0000E+00  setid=       0
 node=  5859 local x,y,z forces =    8.1552E+05   -7.3334E+05    0.0000E+00  setid=       0
 node=  5860 local x,y,z forces =   -1.4354E+06    4.4642E+04    0.0000E+00  setid=       0
 node=  5861 local x,y,z forces =   -3.7954E+05    2.1366E+04    0.0000E+00  setid=       0
 node=  5862 local x,y,z forces =   -4.1754E+05   -6.8130E+04    0.0000E+00  setid=       0
 node=  5863 local x,y,z forces =   -1.7066E+05   -7.5487E+04    0.0000E+00  setid=       0
 node=  5864 local x,y,z forces =    3.1432E-09   -9.0228E+04    0.0000E+00  setid=       0
 node=  5865 local x,y,z forces =    1.7066E+05   -7.5487E+04    0.0000E+00  setid=       0
 node=  5866 local x,y,z forces =    4.1754E+05   -6.8130E+04    0.0000E+00  setid=       0
 node=  5867 local x,y,z forces =    3.7954E+05    2.1366E+04    0.0000E+00  setid=       0
 node=  5868 local x,y,z forces =    1.4354E+06    4.4642E+04    0.0000E+00  setid=       0
 node=  5869 local x,y,z forces =   -1.1608E+06    8.3840E+04    0.0000E+00  setid=       0
 node=  5870 local x,y,z forces =   -3.1374E+05    7.2063E+04    0.0000E+00  setid=       0
 node=  5871 local x,y,z forces =   -3.4324E+05   -5.2099E+04    0.0000E+00  setid=       0
 node=  5872 local x,y,z forces =   -1.3796E+05   -7.9297E+04    0.0000E+00  setid=       0
 node=  5873 local x,y,z forces =    4.8894E-09   -9.8747E+04    0.0000E+00  setid=       0
 node=  5874 local x,y,z forces =    1.3796E+05   -7.9297E+04    0.0000E+00  setid=       0
 node=  5875 local x,y,z forces =    3.4324E+05   -5.2099E+04    0.0000E+00  setid=       0
 node=  5876 local x,y,z forces =    3.1374E+05    7.2063E+04    0.0000E+00  setid=       0
 node=  5877 local x,y,z forces =    1.1608E+06    8.3840E+04    0.0000E+00  setid=       0
 node=  5878 local x,y,z forces =   -9.2743E+05    1.9166E+05    0.0000E+00  setid=       0
 node=  5879 local x,y,z forces =   -2.5905E+05    2.9525E+05    0.0000E+00  setid=       0
 node=  5880 local x,y,z forces =   -2.8004E+05    1.8106E+05    0.0000E+00  setid=       0
 node=  5881 local x,y,z forces =   -1.1175E+05    1.5494E+05    0.0000E+00  setid=       0
 node=  5882 local x,y,z forces =    2.9104E-09    1.3767E+05    0.0000E+00  setid=       0
 node=  5883 local x,y,z forces =    1.1175E+05    1.5494E+05    0.0000E+00  setid=       0
 node=  5884 local x,y,z forces =    2.8004E+05    1.8106E+05    0.0000E+00  setid=       0
 node=  5885 local x,y,z forces =    2.5905E+05    2.9525E+05    0.0000E+00  setid=       0
 node=  5886 local x,y,z forces =    9.2743E+05    1.9166E+05    0.0000E+00  setid=       0
 node=  5887 local x,y,z forces =   -6.8556E+05    2.3307E+05    0.0000E+00  setid=       0
 node=  5888 local x,y,z forces =   -1.9548E+05    3.7747E+05    0.0000E+00  setid=       0
 node=  5889 local x,y,z forces =   -2.1197E+05    2.6441E+05    0.0000E+00  setid=       0
 node=  5890 local x,y,z forces =   -8.4852E+04    2.3599E+05    0.0000E+00  setid=       0
 node=  5891 local x,y,z forces =    1.2806E-09    2.2008E+05    0.0000E+00  setid=       0
 node=  5892 local x,y,z forces =    8.4852E+04    2.3599E+05    0.0000E+00  setid=       0
 node=  5893 local x,y,z forces =    2.1197E+05    2.6441E+05    0.0000E+00  setid=       0
 node=  5894 local x,y,z forces =    1.9548E+05    3.7747E+05    0.0000E+00  setid=       0
 node=  5895 local x,y,z forces =    6.8556E+05    2.3307E+05    0.0000E+00  setid=       0
 node=  5896 local x,y,z forces =   -4.4505E+05    2.6718E+05    0.0000E+00  setid=       0
 node=  5897 local x,y,z forces =   -1.2836E+05    4.4840E+05    0.0000E+00  setid=       0
 node=  5898 local x,y,z forces =   -1.4018E+05    3.4063E+05    0.0000E+00  setid=       0
 node=  5899 local x,y,z forces =   -5.6400E+04    3.1034E+05    0.0000E+00  setid=       0
 node=  5900 local x,y,z forces =    1.8044E-09    2.9634E+05    0.0000E+00  setid=       0
 node=  5901 local x,y,z forces =    5.6400E+04    3.1034E+05    0.0000E+00  setid=       0
 node=  5902 local x,y,z forces =    1.4018E+05    3.4063E+05    0.0000E+00  setid=       0
 node=  5903 local x,y,z forces =    1.2836E+05    4.4840E+05    0.0000E+00  setid=       0
 node=  5904 local x,y,z forces =    4.4505E+05    2.6718E+05    0.0000E+00  setid=       0
 node=  5905 local x,y,z forces =   -2.0196E+05    2.7442E+05    0.0000E+00  setid=       0
 node=  5906 local x,y,z forces =   -5.8417E+04    4.6500E+05    0.0000E+00  setid=       0
 node=  5907 local x,y,z forces =   -6.6250E+04    3.6153E+05    0.0000E+00  setid=       0
 node=  5908 local x,y,z forces =   -2.6784E+04    3.2832E+05    0.0000E+00  setid=       0
 node=  5909 local x,y,z forces =   -2.6193E-10    3.1563E+05    0.0000E+00  setid=       0
 node=  5910 local x,y,z forces =    2.6784E+04    3.2832E+05    0.0000E+00  setid=       0
 node=  5911 local x,y,z forces =    6.6250E+04    3.6153E+05    0.0000E+00  setid=       0
 node=  5912 local x,y,z forces =    5.8417E+04    4.6500E+05    0.0000E+00  setid=       0
 node=  5913 local x,y,z forces =    2.0196E+05    2.7442E+05    0.0000E+00  setid=       0
 node=  5914 local x,y,z forces =    4.2118E+04    2.6930E+05    0.0000E+00  setid=       0
 node=  5915 local x,y,z forces =    1.2597E+04    4.5844E+05    0.0000E+00  setid=       0
 node=  5916 local x,y,z forces =    7.9494E+03    3.6071E+05    0.0000E+00  setid=       0
 node=  5917 local x,y,z forces =    3.2479E+03    3.2508E+05    0.0000E+00  setid=       0
 node=  5918 local x,y,z forces =    6.6939E-10    3.1364E+05    0.0000E+00  setid=       0
 node=  5919 local x,y,z forces =   -3.2479E+03    3.2508E+05    0.0000E+00  setid=       0
 node=  5920 local x,y,z forces =   -7.9494E+03    3.6071E+05    0.0000E+00  setid=       0
 node=  5921 local x,y,z forces =   -1.2597E+04    4.5844E+05    0.0000E+00  setid=       0
 node=  5922 local x,y,z forces =   -4.2118E+04    2.6930E+05    0.0000E+00  setid=       0
 node=  5923 local x,y,z forces =    2.8653E+05    2.4290E+05    0.0000E+00  setid=       0
 node=  5924 local x,y,z forces =    8.3205E+04    4.0925E+05    0.0000E+00  setid=       0
 node=  5925 local x,y,z forces =    8.0909E+04    3.1716E+05    0.0000E+00  setid=       0
 node=  5926 local x,y,z forces =    3.2885E+04    2.7862E+05    0.0000E+00  setid=       0
 node=  5927 local x,y,z forces =    1.2224E-09    2.6795E+05    0.0000E+00  setid=       0
 node=  5928 local x,y,z forces =   -3.2885E+04    2.7862E+05    0.0000E+00  setid=       0
 node=  5929 local x,y,z forces =   -8.0909E+04    3.1716E+05    0.0000E+00  setid=       0
 node=  5930 local x,y,z forces =   -8.3205E+04    4.0925E+05    0.0000E+00  setid=       0
 node=  5931 local x,y,z forces =   -2.8653E+05    2.4290E+05    0.0000E+00  setid=       0
 node=  5932 local x,y,z forces =    5.3189E+05    2.0269E+05    0.0000E+00  setid=       0
 node=  5933 local x,y,z forces =    1.5250E+05    3.3378E+05    0.0000E+00  setid=       0
 node=  5934 local x,y,z forces =    1.5168E+05    2.4933E+05    0.0000E+00  setid=       0
 node=  5935 local x,y,z forces =    6.1552E+04    2.0800E+05    0.0000E+00  setid=       0
 node=  5936 local x,y,z forces =   -5.8208E-10    1.9828E+05    0.0000E+00  setid=       0
 node=  5937 local x,y,z forces =   -6.1552E+04    2.0800E+05    0.0000E+00  setid=       0
 node=  5938 local x,y,z forces =   -1.5168E+05    2.4933E+05    0.0000E+00  setid=       0
 node=  5939 local x,y,z forces =   -1.5250E+05    3.3378E+05    0.0000E+00  setid=       0
 node=  5940 local x,y,z forces =   -5.3189E+05    2.0269E+05    0.0000E+00  setid=       0
 node=  5941 local x,y,z forces =    7.7371E+05    1.2611E+05    0.0000E+00  setid=       0
 node=  5942 local x,y,z forces =    2.1737E+05    1.8417E+05    0.0000E+00  setid=       0
 node=  5943 local x,y,z forces =    2.1865E+05    1.0279E+05    0.0000E+00  setid=       0
 node=  5944 local x,y,z forces =    9.0406E+04    5.7888E+04    0.0000E+00  setid=       0
 node=  5945 local x,y,z forces =   -8.1491E-10    4.9593E+04    0.0000E+00  setid=       0
 node=  5946 local x,y,z forces =   -9.0406E+04    5.7888E+04    0.0000E+00  setid=       0
 node=  5947 local x,y,z forces =   -2.1865E+05    1.0279E+05    0.0000E+00  setid=       0
 node=  5948 local x,y,z forces =   -2.1737E+05    1.8417E+05    0.0000E+00  setid=       0
 node=  5949 local x,y,z forces =   -7.7371E+05    1.2611E+05    0.0000E+00  setid=       0
 node=  5950 local x,y,z forces =    1.0386E+06    5.6864E+04    0.0000E+00  setid=       0
 node=  5951 local x,y,z forces =    2.9014E+05    6.2241E+04    0.0000E+00  setid=       0
 node=  5952 local x,y,z forces =    2.9631E+05    6.3645E+03    0.0000E+00  setid=       0
 node=  5953 local x,y,z forces =    1.2410E+05   -2.7438E+04    0.0000E+00  setid=       0
 node=  5954 local x,y,z forces =    9.3132E-10   -3.1061E+04    0.0000E+00  setid=       0
 node=  5955 local x,y,z forces =   -1.2410E+05   -2.7438E+04    0.0000E+00  setid=       0
 node=  5956 local x,y,z forces =   -2.9631E+05    6.3645E+03    0.0000E+00  setid=       0
 node=  5957 local x,y,z forces =   -2.9014E+05    6.2241E+04    0.0000E+00  setid=       0
 node=  5958 local x,y,z forces =   -1.0386E+06    5.6864E+04    0.0000E+00  setid=       0
 node=  5959 local x,y,z forces =    5.9278E+05   -5.2289E+05    0.0000E+00  setid=       0
 node=  5960 local x,y,z forces =    1.6154E+05   -1.0071E+06    0.0000E+00  setid=       0
 node=  5961 local x,y,z forces =    1.7006E+05   -9.8619E+05    0.0000E+00  setid=       0
 node=  5962 local x,y,z forces =    7.1180E+04   -1.0133E+06    0.0000E+00  setid=       0
 node=  5963 local x,y,z forces =    1.8626E-09   -1.0150E+06    0.0000E+00  setid=       0
 node=  5964 local x,y,z forces =   -7.1180E+04   -1.0133E+06    0.0000E+00  setid=       0
 node=  5965 local x,y,z forces =   -1.7006E+05   -9.8619E+05    0.0000E+00  setid=       0
 node=  5966 local x,y,z forces =   -1.6154E+05   -1.0071E+06    0.0000E+00  setid=       0
 node=  5967 local x,y,z forces =   -5.9278E+05   -5.2289E+05    0.0000E+00  setid=       0
             force resultants   =    1.2340E-08   -6.1565E+02   -5.7366E+07
