 400x600                                                                 
                         ls-dyna smp.123264 d           date 01/12/2018

{BEGIN LEGEND}
 Entity #        Title
        0     bottom                                                                
        0     middle                                                                
{END LEGEND}

 single point constraint forces

 output at time =   0.00000E+00
 node=    59 local x,y,z forces =    0.0000E+00    0.0000E+00    0.0000E+00  setid=       0
 node=    59 local x,y,z moments=    0.0000E+00    0.0000E+00    0.0000E+00  setid=       0
 node=  2926 local x,y,z forces =    0.0000E+00    0.0000E+00    0.0000E+00  setid=       0
 node=  2934 local x,y,z forces =    0.0000E+00    0.0000E+00    0.0000E+00  setid=       0
 node=  2935 local x,y,z forces =    0.0000E+00    0.0000E+00    0.0000E+00  setid=       0
 node=  2943 local x,y,z forces =    0.0000E+00    0.0000E+00    0.0000E+00  setid=       0
 node=  2944 local x,y,z forces =    0.0000E+00    0.0000E+00    0.0000E+00  setid=       0
 node=  2952 local x,y,z forces =    0.0000E+00    0.0000E+00    0.0000E+00  setid=       0
 node=  2953 local x,y,z forces =    0.0000E+00    0.0000E+00    0.0000E+00  setid=       0
 node=  2961 local x,y,z forces =    0.0000E+00    0.0000E+00    0.0000E+00  setid=       0
 node=  2962 local x,y,z forces =    0.0000E+00    0.0000E+00    0.0000E+00  setid=       0
 node=  2970 local x,y,z forces =    0.0000E+00    0.0000E+00    0.0000E+00  setid=       0
 node=  2971 local x,y,z forces =    0.0000E+00    0.0000E+00    0.0000E+00  setid=       0
 node=  2979 local x,y,z forces =    0.0000E+00    0.0000E+00    0.0000E+00  setid=       0
 node=  2980 local x,y,z forces =    0.0000E+00    0.0000E+00    0.0000E+00  setid=       0
 node=  2988 local x,y,z forces =    0.0000E+00    0.0000E+00    0.0000E+00  setid=       0
 node=  2989 local x,y,z forces =    0.0000E+00    0.0000E+00    0.0000E+00  setid=       0
 node=  2997 local x,y,z forces =    0.0000E+00    0.0000E+00    0.0000E+00  setid=       0
 node=  2998 local x,y,z forces =    0.0000E+00    0.0000E+00    0.0000E+00  setid=       0
 node=  3006 local x,y,z forces =    0.0000E+00    0.0000E+00    0.0000E+00  setid=       0
 node=  3007 local x,y,z forces =    0.0000E+00    0.0000E+00    0.0000E+00  setid=       0
 node=  3015 local x,y,z forces =    0.0000E+00    0.0000E+00    0.0000E+00  setid=       0
 node=  3016 local x,y,z forces =    0.0000E+00    0.0000E+00    0.0000E+00  setid=       0
 node=  3024 local x,y,z forces =    0.0000E+00    0.0000E+00    0.0000E+00  setid=       0
 node=  3025 local x,y,z forces =    0.0000E+00    0.0000E+00    0.0000E+00  setid=       0
 node=  3033 local x,y,z forces =    0.0000E+00    0.0000E+00    0.0000E+00  setid=       0
 node=  3034 local x,y,z forces =    0.0000E+00    0.0000E+00    0.0000E+00  setid=       0
 node=  3042 local x,y,z forces =    0.0000E+00    0.0000E+00    0.0000E+00  setid=       0
             force resultants   =    0.0000E+00    0.0000E+00    0.0000E+00
 output at time =   2.00000E-04
 node=    59 local x,y,z forces =    2.0373E-10    2.1004E+00   -1.3388E+06  setid=       0
 node=    59 local x,y,z moments=    0.0000E+00    0.0000E+00    0.0000E+00  setid=       0
 node=  2926 local x,y,z forces =   -4.5219E+03    0.0000E+00    0.0000E+00  setid=       0
 node=  2934 local x,y,z forces =    4.5219E+03    0.0000E+00    0.0000E+00  setid=       0
 node=  2935 local x,y,z forces =   -9.8317E+03    0.0000E+00    0.0000E+00  setid=       0
 node=  2943 local x,y,z forces =    9.8317E+03    0.0000E+00    0.0000E+00  setid=       0
 node=  2944 local x,y,z forces =   -1.0199E+04    0.0000E+00    0.0000E+00  setid=       0
 node=  2952 local x,y,z forces =    1.0199E+04    0.0000E+00    0.0000E+00  setid=       0
 node=  2953 local x,y,z forces =   -1.0292E+04    0.0000E+00    0.0000E+00  setid=       0
 node=  2961 local x,y,z forces =    1.0292E+04    0.0000E+00    0.0000E+00  setid=       0
 node=  2962 local x,y,z forces =   -1.1440E+04    0.0000E+00    0.0000E+00  setid=       0
 node=  2970 local x,y,z forces =    1.1440E+04    0.0000E+00    0.0000E+00  setid=       0
 node=  2971 local x,y,z forces =   -8.6175E+03    0.0000E+00    0.0000E+00  setid=       0
 node=  2979 local x,y,z forces =    8.6175E+03    0.0000E+00    0.0000E+00  setid=       0
 node=  2980 local x,y,z forces =   -5.1574E+03    0.0000E+00    0.0000E+00  setid=       0
 node=  2988 local x,y,z forces =    5.1574E+03    0.0000E+00    0.0000E+00  setid=       0
 node=  2989 local x,y,z forces =   -8.6079E+03    0.0000E+00    0.0000E+00  setid=       0
 node=  2997 local x,y,z forces =    8.6079E+03    0.0000E+00    0.0000E+00  setid=       0
 node=  2998 local x,y,z forces =   -1.1447E+04    0.0000E+00    0.0000E+00  setid=       0
 node=  3006 local x,y,z forces =    1.1447E+04    0.0000E+00    0.0000E+00  setid=       0
 node=  3007 local x,y,z forces =   -1.0294E+04    0.0000E+00    0.0000E+00  setid=       0
 node=  3015 local x,y,z forces =    1.0294E+04    0.0000E+00    0.0000E+00  setid=       0
 node=  3016 local x,y,z forces =   -1.0196E+04    0.0000E+00    0.0000E+00  setid=       0
 node=  3024 local x,y,z forces =    1.0196E+04    0.0000E+00    0.0000E+00  setid=       0
 node=  3025 local x,y,z forces =   -9.8329E+03    0.0000E+00    0.0000E+00  setid=       0
 node=  3033 local x,y,z forces =    9.8329E+03    0.0000E+00    0.0000E+00  setid=       0
 node=  3034 local x,y,z forces =   -4.5217E+03    0.0000E+00    0.0000E+00  setid=       0
 node=  3042 local x,y,z forces =    4.5217E+03    0.0000E+00    0.0000E+00  setid=       0
             force resultants   =   -1.2560E-09    2.1004E+00   -1.3388E+06
 output at time =   4.00000E-04
 node=    59 local x,y,z forces =    8.7311E-11   -8.0153E+00   -2.6772E+06  setid=       0
 node=    59 local x,y,z moments=    0.0000E+00    0.0000E+00    0.0000E+00  setid=       0
 node=  2926 local x,y,z forces =   -9.0407E+03    0.0000E+00    0.0000E+00  setid=       0
 node=  2934 local x,y,z forces =    9.0407E+03    0.0000E+00    0.0000E+00  setid=       0
 node=  2935 local x,y,z forces =   -1.9657E+04    0.0000E+00    0.0000E+00  setid=       0
 node=  2943 local x,y,z forces =    1.9657E+04    0.0000E+00    0.0000E+00  setid=       0
 node=  2944 local x,y,z forces =   -2.0391E+04    0.0000E+00    0.0000E+00  setid=       0
 node=  2952 local x,y,z forces =    2.0391E+04    0.0000E+00    0.0000E+00  setid=       0
 node=  2953 local x,y,z forces =   -2.0578E+04    0.0000E+00    0.0000E+00  setid=       0
 node=  2961 local x,y,z forces =    2.0578E+04    0.0000E+00    0.0000E+00  setid=       0
 node=  2962 local x,y,z forces =   -2.2873E+04    0.0000E+00    0.0000E+00  setid=       0
 node=  2970 local x,y,z forces =    2.2873E+04    0.0000E+00    0.0000E+00  setid=       0
 node=  2971 local x,y,z forces =   -1.7232E+04    0.0000E+00    0.0000E+00  setid=       0
 node=  2979 local x,y,z forces =    1.7232E+04    0.0000E+00    0.0000E+00  setid=       0
 node=  2980 local x,y,z forces =   -1.0315E+04    0.0000E+00    0.0000E+00  setid=       0
 node=  2988 local x,y,z forces =    1.0315E+04    0.0000E+00    0.0000E+00  setid=       0
 node=  2989 local x,y,z forces =   -1.7213E+04    0.0000E+00    0.0000E+00  setid=       0
 node=  2997 local x,y,z forces =    1.7213E+04    0.0000E+00    0.0000E+00  setid=       0
 node=  2998 local x,y,z forces =   -2.2889E+04    0.0000E+00    0.0000E+00  setid=       0
 node=  3006 local x,y,z forces =    2.2889E+04    0.0000E+00    0.0000E+00  setid=       0
 node=  3007 local x,y,z forces =   -2.0582E+04    0.0000E+00    0.0000E+00  setid=       0
 node=  3015 local x,y,z forces =    2.0582E+04    0.0000E+00    0.0000E+00  setid=       0
 node=  3016 local x,y,z forces =   -2.0387E+04    0.0000E+00    0.0000E+00  setid=       0
 node=  3024 local x,y,z forces =    2.0387E+04    0.0000E+00    0.0000E+00  setid=       0
 node=  3025 local x,y,z forces =   -1.9660E+04    0.0000E+00    0.0000E+00  setid=       0
 node=  3033 local x,y,z forces =    1.9660E+04    0.0000E+00    0.0000E+00  setid=       0
 node=  3034 local x,y,z forces =   -9.0409E+03    0.0000E+00    0.0000E+00  setid=       0
 node=  3042 local x,y,z forces =    9.0409E+03    0.0000E+00    0.0000E+00  setid=       0
             force resultants   =   -2.5830E-09   -8.0153E+00   -2.6772E+06
 output at time =   6.00000E-04
 node=    59 local x,y,z forces =   -1.7462E-10   -3.1168E+01   -4.0151E+06  setid=       0
 node=    59 local x,y,z moments=    0.0000E+00    0.0000E+00    0.0000E+00  setid=       0
 node=  2926 local x,y,z forces =   -1.3556E+04    0.0000E+00    0.0000E+00  setid=       0
 node=  2934 local x,y,z forces =    1.3556E+04    0.0000E+00    0.0000E+00  setid=       0
 node=  2935 local x,y,z forces =   -2.9475E+04    0.0000E+00    0.0000E+00  setid=       0
 node=  2943 local x,y,z forces =    2.9475E+04    0.0000E+00    0.0000E+00  setid=       0
 node=  2944 local x,y,z forces =   -3.0576E+04    0.0000E+00    0.0000E+00  setid=       0
 node=  2952 local x,y,z forces =    3.0576E+04    0.0000E+00    0.0000E+00  setid=       0
 node=  2953 local x,y,z forces =   -3.0857E+04    0.0000E+00    0.0000E+00  setid=       0
 node=  2961 local x,y,z forces =    3.0857E+04    0.0000E+00    0.0000E+00  setid=       0
 node=  2962 local x,y,z forces =   -3.4299E+04    0.0000E+00    0.0000E+00  setid=       0
 node=  2970 local x,y,z forces =    3.4299E+04    0.0000E+00    0.0000E+00  setid=       0
 node=  2971 local x,y,z forces =   -2.5842E+04    0.0000E+00    0.0000E+00  setid=       0
 node=  2979 local x,y,z forces =    2.5842E+04    0.0000E+00    0.0000E+00  setid=       0
 node=  2980 local x,y,z forces =   -1.5472E+04    0.0000E+00    0.0000E+00  setid=       0
 node=  2988 local x,y,z forces =    1.5472E+04    0.0000E+00    0.0000E+00  setid=       0
 node=  2989 local x,y,z forces =   -2.5814E+04    0.0000E+00    0.0000E+00  setid=       0
 node=  2997 local x,y,z forces =    2.5814E+04    0.0000E+00    0.0000E+00  setid=       0
 node=  2998 local x,y,z forces =   -3.4324E+04    0.0000E+00    0.0000E+00  setid=       0
 node=  3006 local x,y,z forces =    3.4324E+04    0.0000E+00    0.0000E+00  setid=       0
 node=  3007 local x,y,z forces =   -3.0864E+04    0.0000E+00    0.0000E+00  setid=       0
 node=  3015 local x,y,z forces =    3.0864E+04    0.0000E+00    0.0000E+00  setid=       0
 node=  3016 local x,y,z forces =   -3.0572E+04    0.0000E+00    0.0000E+00  setid=       0
 node=  3024 local x,y,z forces =    3.0572E+04    0.0000E+00    0.0000E+00  setid=       0
 node=  3025 local x,y,z forces =   -2.9482E+04    0.0000E+00    0.0000E+00  setid=       0
 node=  3033 local x,y,z forces =    2.9482E+04    0.0000E+00    0.0000E+00  setid=       0
 node=  3034 local x,y,z forces =   -1.3557E+04    0.0000E+00    0.0000E+00  setid=       0
 node=  3042 local x,y,z forces =    1.3557E+04    0.0000E+00    0.0000E+00  setid=       0
             force resultants   =    1.5134E-09   -3.1168E+01   -4.0151E+06
 output at time =   8.00000E-04
 node=    59 local x,y,z forces =   -1.6298E-09   -6.8252E+01   -5.3526E+06  setid=       0
 node=    59 local x,y,z moments=    0.0000E+00    0.0000E+00    0.0000E+00  setid=       0
 node=  2926 local x,y,z forces =   -1.8067E+04    0.0000E+00    0.0000E+00  setid=       0
 node=  2934 local x,y,z forces =    1.8067E+04    0.0000E+00    0.0000E+00  setid=       0
 node=  2935 local x,y,z forces =   -3.9284E+04    0.0000E+00    0.0000E+00  setid=       0
 node=  2943 local x,y,z forces =    3.9284E+04    0.0000E+00    0.0000E+00  setid=       0
 node=  2944 local x,y,z forces =   -4.0753E+04    0.0000E+00    0.0000E+00  setid=       0
 node=  2952 local x,y,z forces =    4.0753E+04    0.0000E+00    0.0000E+00  setid=       0
 node=  2953 local x,y,z forces =   -4.1127E+04    0.0000E+00    0.0000E+00  setid=       0
 node=  2961 local x,y,z forces =    4.1127E+04    0.0000E+00    0.0000E+00  setid=       0
 node=  2962 local x,y,z forces =   -4.5715E+04    0.0000E+00    0.0000E+00  setid=       0
 node=  2970 local x,y,z forces =    4.5715E+04    0.0000E+00    0.0000E+00  setid=       0
 node=  2971 local x,y,z forces =   -3.4449E+04    0.0000E+00    0.0000E+00  setid=       0
 node=  2979 local x,y,z forces =    3.4449E+04    0.0000E+00    0.0000E+00  setid=       0
 node=  2980 local x,y,z forces =   -2.0629E+04    0.0000E+00    0.0000E+00  setid=       0
 node=  2988 local x,y,z forces =    2.0629E+04    0.0000E+00    0.0000E+00  setid=       0
 node=  2989 local x,y,z forces =   -3.4411E+04    0.0000E+00    0.0000E+00  setid=       0
 node=  2997 local x,y,z forces =    3.4411E+04    0.0000E+00    0.0000E+00  setid=       0
 node=  2998 local x,y,z forces =   -4.5752E+04    0.0000E+00    0.0000E+00  setid=       0
 node=  3006 local x,y,z forces =    4.5752E+04    0.0000E+00    0.0000E+00  setid=       0
 node=  3007 local x,y,z forces =   -4.1140E+04    0.0000E+00    0.0000E+00  setid=       0
 node=  3015 local x,y,z forces =    4.1140E+04    0.0000E+00    0.0000E+00  setid=       0
 node=  3016 local x,y,z forces =   -4.0750E+04    0.0000E+00    0.0000E+00  setid=       0
 node=  3024 local x,y,z forces =    4.0750E+04    0.0000E+00    0.0000E+00  setid=       0
 node=  3025 local x,y,z forces =   -3.9299E+04    0.0000E+00    0.0000E+00  setid=       0
 node=  3033 local x,y,z forces =    3.9299E+04    0.0000E+00    0.0000E+00  setid=       0
 node=  3034 local x,y,z forces =   -1.8071E+04    0.0000E+00    0.0000E+00  setid=       0
 node=  3042 local x,y,z forces =    1.8071E+04    0.0000E+00    0.0000E+00  setid=       0
             force resultants   =   -2.3174E-09   -6.8252E+01   -5.3526E+06
 output at time =   1.00000E-03
 node=    59 local x,y,z forces =    2.6776E-09   -1.2020E+02   -6.6893E+06  setid=       0
 node=    59 local x,y,z moments=    0.0000E+00    0.0000E+00    0.0000E+00  setid=       0
 node=  2926 local x,y,z forces =   -2.2572E+04    0.0000E+00    0.0000E+00  setid=       0
 node=  2934 local x,y,z forces =    2.2572E+04    0.0000E+00    0.0000E+00  setid=       0
 node=  2935 local x,y,z forces =   -4.9081E+04    0.0000E+00    0.0000E+00  setid=       0
 node=  2943 local x,y,z forces =    4.9081E+04    0.0000E+00    0.0000E+00  setid=       0
 node=  2944 local x,y,z forces =   -5.0920E+04    0.0000E+00    0.0000E+00  setid=       0
 node=  2952 local x,y,z forces =    5.0920E+04    0.0000E+00    0.0000E+00  setid=       0
 node=  2953 local x,y,z forces =   -5.1388E+04    0.0000E+00    0.0000E+00  setid=       0
 node=  2961 local x,y,z forces =    5.1388E+04    0.0000E+00    0.0000E+00  setid=       0
 node=  2962 local x,y,z forces =   -5.7120E+04    0.0000E+00    0.0000E+00  setid=       0
 node=  2970 local x,y,z forces =    5.7120E+04    0.0000E+00    0.0000E+00  setid=       0
 node=  2971 local x,y,z forces =   -4.3050E+04    0.0000E+00    0.0000E+00  setid=       0
 node=  2979 local x,y,z forces =    4.3050E+04    0.0000E+00    0.0000E+00  setid=       0
 node=  2980 local x,y,z forces =   -2.5787E+04    0.0000E+00    0.0000E+00  setid=       0
 node=  2988 local x,y,z forces =    2.5787E+04    0.0000E+00    0.0000E+00  setid=       0
 node=  2989 local x,y,z forces =   -4.3004E+04    0.0000E+00    0.0000E+00  setid=       0
 node=  2997 local x,y,z forces =    4.3004E+04    0.0000E+00    0.0000E+00  setid=       0
 node=  2998 local x,y,z forces =   -5.7173E+04    0.0000E+00    0.0000E+00  setid=       0
 node=  3006 local x,y,z forces =    5.7173E+04    0.0000E+00    0.0000E+00  setid=       0
 node=  3007 local x,y,z forces =   -5.1409E+04    0.0000E+00    0.0000E+00  setid=       0
 node=  3015 local x,y,z forces =    5.1409E+04    0.0000E+00    0.0000E+00  setid=       0
 node=  3016 local x,y,z forces =   -5.0922E+04    0.0000E+00    0.0000E+00  setid=       0
 node=  3024 local x,y,z forces =    5.0922E+04    0.0000E+00    0.0000E+00  setid=       0
 node=  3025 local x,y,z forces =   -4.9109E+04    0.0000E+00    0.0000E+00  setid=       0
 node=  3033 local x,y,z forces =    4.9109E+04    0.0000E+00    0.0000E+00  setid=       0
 node=  3034 local x,y,z forces =   -2.2583E+04    0.0000E+00    0.0000E+00  setid=       0
 node=  3042 local x,y,z forces =    2.2583E+04    0.0000E+00    0.0000E+00  setid=       0
             force resultants   =    3.8235E-09   -1.2020E+02   -6.6893E+06
 output at time =   1.20000E-03
 node=    59 local x,y,z forces =   -4.1910E-09   -1.8786E+02   -8.0253E+06  setid=       0
 node=    59 local x,y,z moments=    0.0000E+00    0.0000E+00    0.0000E+00  setid=       0
 node=  2926 local x,y,z forces =   -2.7070E+04    0.0000E+00    0.0000E+00  setid=       0
 node=  2934 local x,y,z forces =    2.7070E+04    0.0000E+00    0.0000E+00  setid=       0
 node=  2935 local x,y,z forces =   -5.8865E+04    0.0000E+00    0.0000E+00  setid=       0
 node=  2943 local x,y,z forces =    5.8865E+04    0.0000E+00    0.0000E+00  setid=       0
 node=  2944 local x,y,z forces =   -6.1073E+04    0.0000E+00    0.0000E+00  setid=       0
 node=  2952 local x,y,z forces =    6.1073E+04    0.0000E+00    0.0000E+00  setid=       0
 node=  2953 local x,y,z forces =   -6.1636E+04    0.0000E+00    0.0000E+00  setid=       0
 node=  2961 local x,y,z forces =    6.1636E+04    0.0000E+00    0.0000E+00  setid=       0
 node=  2962 local x,y,z forces =   -6.8512E+04    0.0000E+00    0.0000E+00  setid=       0
 node=  2970 local x,y,z forces =    6.8512E+04    0.0000E+00    0.0000E+00  setid=       0
 node=  2971 local x,y,z forces =   -5.1645E+04    0.0000E+00    0.0000E+00  setid=       0
 node=  2979 local x,y,z forces =    5.1645E+04    0.0000E+00    0.0000E+00  setid=       0
 node=  2980 local x,y,z forces =   -3.0944E+04    0.0000E+00    0.0000E+00  setid=       0
 node=  2988 local x,y,z forces =    3.0944E+04    0.0000E+00    0.0000E+00  setid=       0
 node=  2989 local x,y,z forces =   -5.1591E+04    0.0000E+00    0.0000E+00  setid=       0
 node=  2997 local x,y,z forces =    5.1591E+04    0.0000E+00    0.0000E+00  setid=       0
 node=  2998 local x,y,z forces =   -6.8586E+04    0.0000E+00    0.0000E+00  setid=       0
 node=  3006 local x,y,z forces =    6.8586E+04    0.0000E+00    0.0000E+00  setid=       0
 node=  3007 local x,y,z forces =   -6.1672E+04    0.0000E+00    0.0000E+00  setid=       0
 node=  3015 local x,y,z forces =    6.1672E+04    0.0000E+00    0.0000E+00  setid=       0
 node=  3016 local x,y,z forces =   -6.1089E+04    0.0000E+00    0.0000E+00  setid=       0
 node=  3024 local x,y,z forces =    6.1089E+04    0.0000E+00    0.0000E+00  setid=       0
 node=  3025 local x,y,z forces =   -5.8916E+04    0.0000E+00    0.0000E+00  setid=       0
 node=  3033 local x,y,z forces =    5.8916E+04    0.0000E+00    0.0000E+00  setid=       0
 node=  3034 local x,y,z forces =   -2.7092E+04    0.0000E+00    0.0000E+00  setid=       0
 node=  3042 local x,y,z forces =    2.7092E+04    0.0000E+00    0.0000E+00  setid=       0
             force resultants   =   -5.5334E-09   -1.8786E+02   -8.0253E+06
 output at time =   1.40000E-03
 node=    59 local x,y,z forces =    0.0000E+00   -2.7159E+02   -9.3603E+06  setid=       0
 node=    59 local x,y,z moments=    0.0000E+00    0.0000E+00    0.0000E+00  setid=       0
 node=  2926 local x,y,z forces =   -3.1559E+04    0.0000E+00    0.0000E+00  setid=       0
 node=  2934 local x,y,z forces =    3.1559E+04    0.0000E+00    0.0000E+00  setid=       0
 node=  2935 local x,y,z forces =   -6.8629E+04    0.0000E+00    0.0000E+00  setid=       0
 node=  2943 local x,y,z forces =    6.8629E+04    0.0000E+00    0.0000E+00  setid=       0
 node=  2944 local x,y,z forces =   -7.1209E+04    0.0000E+00    0.0000E+00  setid=       0
 node=  2952 local x,y,z forces =    7.1209E+04    0.0000E+00    0.0000E+00  setid=       0
 node=  2953 local x,y,z forces =   -7.1868E+04    0.0000E+00    0.0000E+00  setid=       0
 node=  2961 local x,y,z forces =    7.1868E+04    0.0000E+00    0.0000E+00  setid=       0
 node=  2962 local x,y,z forces =   -7.9887E+04    0.0000E+00    0.0000E+00  setid=       0
 node=  2970 local x,y,z forces =    7.9887E+04    0.0000E+00    0.0000E+00  setid=       0
 node=  2971 local x,y,z forces =   -6.0232E+04    0.0000E+00    0.0000E+00  setid=       0
 node=  2979 local x,y,z forces =    6.0232E+04    0.0000E+00    0.0000E+00  setid=       0
 node=  2980 local x,y,z forces =   -3.6101E+04    0.0000E+00    0.0000E+00  setid=       0
 node=  2988 local x,y,z forces =    3.6101E+04    0.0000E+00    0.0000E+00  setid=       0
 node=  2989 local x,y,z forces =   -6.0174E+04    0.0000E+00    0.0000E+00  setid=       0
 node=  2997 local x,y,z forces =    6.0174E+04    0.0000E+00    0.0000E+00  setid=       0
 node=  2998 local x,y,z forces =   -7.9991E+04    0.0000E+00    0.0000E+00  setid=       0
 node=  3006 local x,y,z forces =    7.9991E+04    0.0000E+00    0.0000E+00  setid=       0
 node=  3007 local x,y,z forces =   -7.1928E+04    0.0000E+00    0.0000E+00  setid=       0
 node=  3015 local x,y,z forces =    7.1928E+04    0.0000E+00    0.0000E+00  setid=       0
 node=  3016 local x,y,z forces =   -7.1251E+04    0.0000E+00    0.0000E+00  setid=       0
 node=  3024 local x,y,z forces =    7.1251E+04    0.0000E+00    0.0000E+00  setid=       0
 node=  3025 local x,y,z forces =   -6.8719E+04    0.0000E+00    0.0000E+00  setid=       0
 node=  3033 local x,y,z forces =    6.8719E+04    0.0000E+00    0.0000E+00  setid=       0
 node=  3034 local x,y,z forces =   -3.1601E+04    0.0000E+00    0.0000E+00  setid=       0
 node=  3042 local x,y,z forces =    3.1601E+04    0.0000E+00    0.0000E+00  setid=       0
             force resultants   =    6.0027E-10   -2.7159E+02   -9.3603E+06
 output at time =   1.60000E-03
 node=    59 local x,y,z forces =    4.6566E-10   -3.7039E+02   -1.0694E+07  setid=       0
 node=    59 local x,y,z moments=    0.0000E+00    0.0000E+00    0.0000E+00  setid=       0
 node=  2926 local x,y,z forces =   -3.6033E+04    0.0000E+00    0.0000E+00  setid=       0
 node=  2934 local x,y,z forces =    3.6033E+04    0.0000E+00    0.0000E+00  setid=       0
 node=  2935 local x,y,z forces =   -7.8366E+04    0.0000E+00    0.0000E+00  setid=       0
 node=  2943 local x,y,z forces =    7.8366E+04    0.0000E+00    0.0000E+00  setid=       0
 node=  2944 local x,y,z forces =   -8.1320E+04    0.0000E+00    0.0000E+00  setid=       0
 node=  2952 local x,y,z forces =    8.1320E+04    0.0000E+00    0.0000E+00  setid=       0
 node=  2953 local x,y,z forces =   -8.2078E+04    0.0000E+00    0.0000E+00  setid=       0
 node=  2961 local x,y,z forces =    8.2078E+04    0.0000E+00    0.0000E+00  setid=       0
 node=  2962 local x,y,z forces =   -9.1242E+04    0.0000E+00    0.0000E+00  setid=       0
 node=  2970 local x,y,z forces =    9.1242E+04    0.0000E+00    0.0000E+00  setid=       0
 node=  2971 local x,y,z forces =   -6.8808E+04    0.0000E+00    0.0000E+00  setid=       0
 node=  2979 local x,y,z forces =    6.8808E+04    0.0000E+00    0.0000E+00  setid=       0
 node=  2980 local x,y,z forces =   -4.1258E+04    0.0000E+00    0.0000E+00  setid=       0
 node=  2988 local x,y,z forces =    4.1258E+04    0.0000E+00    0.0000E+00  setid=       0
 node=  2989 local x,y,z forces =   -6.8752E+04    0.0000E+00    0.0000E+00  setid=       0
 node=  2997 local x,y,z forces =    6.8752E+04    0.0000E+00    0.0000E+00  setid=       0
 node=  2998 local x,y,z forces =   -9.1388E+04    0.0000E+00    0.0000E+00  setid=       0
 node=  3006 local x,y,z forces =    9.1388E+04    0.0000E+00    0.0000E+00  setid=       0
 node=  3007 local x,y,z forces =   -8.2182E+04    0.0000E+00    0.0000E+00  setid=       0
 node=  3015 local x,y,z forces =    8.2182E+04    0.0000E+00    0.0000E+00  setid=       0
 node=  3016 local x,y,z forces =   -8.1414E+04    0.0000E+00    0.0000E+00  setid=       0
 node=  3024 local x,y,z forces =    8.1414E+04    0.0000E+00    0.0000E+00  setid=       0
 node=  3025 local x,y,z forces =   -7.8526E+04    0.0000E+00    0.0000E+00  setid=       0
 node=  3033 local x,y,z forces =    7.8526E+04    0.0000E+00    0.0000E+00  setid=       0
 node=  3034 local x,y,z forces =   -3.6113E+04    0.0000E+00    0.0000E+00  setid=       0
 node=  3042 local x,y,z forces =    3.6113E+04    0.0000E+00    0.0000E+00  setid=       0
             force resultants   =    1.1569E-09   -3.7039E+02   -1.0694E+07
 output at time =   1.80000E-03
 node=    59 local x,y,z forces =   -1.5134E-09   -4.7920E+02   -1.2027E+07  setid=       0
 node=    59 local x,y,z moments=    0.0000E+00    0.0000E+00    0.0000E+00  setid=       0
 node=  2926 local x,y,z forces =   -4.0485E+04    0.0000E+00    0.0000E+00  setid=       0
 node=  2934 local x,y,z forces =    4.0485E+04    0.0000E+00    0.0000E+00  setid=       0
 node=  2935 local x,y,z forces =   -8.8059E+04    0.0000E+00    0.0000E+00  setid=       0
 node=  2943 local x,y,z forces =    8.8059E+04    0.0000E+00    0.0000E+00  setid=       0
 node=  2944 local x,y,z forces =   -9.1393E+04    0.0000E+00    0.0000E+00  setid=       0
 node=  2952 local x,y,z forces =    9.1393E+04    0.0000E+00    0.0000E+00  setid=       0
 node=  2953 local x,y,z forces =   -9.2256E+04    0.0000E+00    0.0000E+00  setid=       0
 node=  2961 local x,y,z forces =    9.2256E+04    0.0000E+00    0.0000E+00  setid=       0
 node=  2962 local x,y,z forces =   -1.0257E+05    0.0000E+00    0.0000E+00  setid=       0
 node=  2970 local x,y,z forces =    1.0257E+05    0.0000E+00    0.0000E+00  setid=       0
 node=  2971 local x,y,z forces =   -7.7370E+04    0.0000E+00    0.0000E+00  setid=       0
 node=  2979 local x,y,z forces =    7.7370E+04    0.0000E+00    0.0000E+00  setid=       0
 node=  2980 local x,y,z forces =   -4.6413E+04    0.0000E+00    0.0000E+00  setid=       0
 node=  2988 local x,y,z forces =    4.6413E+04    0.0000E+00    0.0000E+00  setid=       0
 node=  2989 local x,y,z forces =   -7.7327E+04    0.0000E+00    0.0000E+00  setid=       0
 node=  2997 local x,y,z forces =    7.7327E+04    0.0000E+00    0.0000E+00  setid=       0
 node=  2998 local x,y,z forces =   -1.0278E+05    0.0000E+00    0.0000E+00  setid=       0
 node=  3006 local x,y,z forces =    1.0278E+05    0.0000E+00    0.0000E+00  setid=       0
 node=  3007 local x,y,z forces =   -9.2440E+04    0.0000E+00    0.0000E+00  setid=       0
 node=  3015 local x,y,z forces =    9.2440E+04    0.0000E+00    0.0000E+00  setid=       0
 node=  3016 local x,y,z forces =   -9.1587E+04    0.0000E+00    0.0000E+00  setid=       0
 node=  3024 local x,y,z forces =    9.1587E+04    0.0000E+00    0.0000E+00  setid=       0
 node=  3025 local x,y,z forces =   -8.8350E+04    0.0000E+00    0.0000E+00  setid=       0
 node=  3033 local x,y,z forces =    8.8350E+04    0.0000E+00    0.0000E+00  setid=       0
 node=  3034 local x,y,z forces =   -4.0634E+04    0.0000E+00    0.0000E+00  setid=       0
 node=  3042 local x,y,z forces =    4.0634E+04    0.0000E+00    0.0000E+00  setid=       0
             force resultants   =   -3.4051E-09   -4.7920E+02   -1.2027E+07
 output at time =   2.00000E-03
 node=    59 local x,y,z forces =    4.6566E-10    1.0230E+02   -1.3356E+07  setid=       0
 node=    59 local x,y,z moments=    0.0000E+00    0.0000E+00    0.0000E+00  setid=       0
 node=  2926 local x,y,z forces =   -4.4859E+04    0.0000E+00    0.0000E+00  setid=       0
 node=  2934 local x,y,z forces =    4.4859E+04    0.0000E+00    0.0000E+00  setid=       0
 node=  2935 local x,y,z forces =   -9.7603E+04    0.0000E+00    0.0000E+00  setid=       0
 node=  2943 local x,y,z forces =    9.7603E+04    0.0000E+00    0.0000E+00  setid=       0
 node=  2944 local x,y,z forces =   -1.0134E+05    0.0000E+00    0.0000E+00  setid=       0
 node=  2952 local x,y,z forces =    1.0134E+05    0.0000E+00    0.0000E+00  setid=       0
 node=  2953 local x,y,z forces =   -1.0234E+05    0.0000E+00    0.0000E+00  setid=       0
 node=  2961 local x,y,z forces =    1.0234E+05    0.0000E+00    0.0000E+00  setid=       0
 node=  2962 local x,y,z forces =   -1.1382E+05    0.0000E+00    0.0000E+00  setid=       0
 node=  2970 local x,y,z forces =    1.1382E+05    0.0000E+00    0.0000E+00  setid=       0
 node=  2971 local x,y,z forces =   -8.5901E+04    0.0000E+00    0.0000E+00  setid=       0
 node=  2979 local x,y,z forces =    8.5901E+04    0.0000E+00    0.0000E+00  setid=       0
 node=  2980 local x,y,z forces =   -5.1576E+04    0.0000E+00    0.0000E+00  setid=       0
 node=  2988 local x,y,z forces =    5.1576E+04    0.0000E+00    0.0000E+00  setid=       0
 node=  2989 local x,y,z forces =   -8.5926E+04    0.0000E+00    0.0000E+00  setid=       0
 node=  2997 local x,y,z forces =    8.5926E+04    0.0000E+00    0.0000E+00  setid=       0
 node=  2998 local x,y,z forces =   -1.1422E+05    0.0000E+00    0.0000E+00  setid=       0
 node=  3006 local x,y,z forces =    1.1422E+05    0.0000E+00    0.0000E+00  setid=       0
 node=  3007 local x,y,z forces =   -1.0277E+05    0.0000E+00    0.0000E+00  setid=       0
 node=  3015 local x,y,z forces =    1.0277E+05    0.0000E+00    0.0000E+00  setid=       0
 node=  3016 local x,y,z forces =   -1.0186E+05    0.0000E+00    0.0000E+00  setid=       0
 node=  3024 local x,y,z forces =    1.0186E+05    0.0000E+00    0.0000E+00  setid=       0
 node=  3025 local x,y,z forces =   -9.8303E+04    0.0000E+00    0.0000E+00  setid=       0
 node=  3033 local x,y,z forces =    9.8303E+04    0.0000E+00    0.0000E+00  setid=       0
 node=  3034 local x,y,z forces =   -4.5225E+04    0.0000E+00    0.0000E+00  setid=       0
 node=  3042 local x,y,z forces =    4.5225E+04    0.0000E+00    0.0000E+00  setid=       0
             force resultants   =   -1.8263E-09    1.0230E+02   -1.3356E+07
 output at time =   2.20000E-03
 node=    59 local x,y,z forces =   -1.7229E-08   -3.6384E+01   -1.4127E+07  setid=       0
 node=    59 local x,y,z moments=    0.0000E+00    0.0000E+00    0.0000E+00  setid=       0
 node=  2926 local x,y,z forces =    2.5550E+03    0.0000E+00    0.0000E+00  setid=       0
 node=  2934 local x,y,z forces =   -2.5550E+03    0.0000E+00    0.0000E+00  setid=       0
 node=  2935 local x,y,z forces =   -9.8314E+03    0.0000E+00    0.0000E+00  setid=       0
 node=  2943 local x,y,z forces =    9.8314E+03    0.0000E+00    0.0000E+00  setid=       0
 node=  2944 local x,y,z forces =   -3.1065E+04    0.0000E+00    0.0000E+00  setid=       0
 node=  2952 local x,y,z forces =    3.1065E+04    0.0000E+00    0.0000E+00  setid=       0
 node=  2953 local x,y,z forces =   -5.1433E+04    0.0000E+00    0.0000E+00  setid=       0
 node=  2961 local x,y,z forces =    5.1433E+04    0.0000E+00    0.0000E+00  setid=       0
 node=  2962 local x,y,z forces =   -8.2552E+04    0.0000E+00    0.0000E+00  setid=       0
 node=  2970 local x,y,z forces =    8.2552E+04    0.0000E+00    0.0000E+00  setid=       0
 node=  2971 local x,y,z forces =   -7.1961E+04    0.0000E+00    0.0000E+00  setid=       0
 node=  2979 local x,y,z forces =    7.1961E+04    0.0000E+00    0.0000E+00  setid=       0
 node=  2980 local x,y,z forces =   -5.4589E+04    0.0000E+00    0.0000E+00  setid=       0
 node=  2988 local x,y,z forces =    5.4589E+04    0.0000E+00    0.0000E+00  setid=       0
 node=  2989 local x,y,z forces =   -1.0982E+05    0.0000E+00    0.0000E+00  setid=       0
 node=  2997 local x,y,z forces =    1.0982E+05    0.0000E+00    0.0000E+00  setid=       0
 node=  2998 local x,y,z forces =   -1.5864E+05    0.0000E+00    0.0000E+00  setid=       0
 node=  3006 local x,y,z forces =    1.5864E+05    0.0000E+00    0.0000E+00  setid=       0
 node=  3007 local x,y,z forces =   -1.6549E+05    0.0000E+00    0.0000E+00  setid=       0
 node=  3015 local x,y,z forces =    1.6549E+05    0.0000E+00    0.0000E+00  setid=       0
 node=  3016 local x,y,z forces =   -1.8380E+05    0.0000E+00    0.0000E+00  setid=       0
 node=  3024 local x,y,z forces =    1.8380E+05    0.0000E+00    0.0000E+00  setid=       0
 node=  3025 local x,y,z forces =   -1.9730E+05    0.0000E+00    0.0000E+00  setid=       0
 node=  3033 local x,y,z forces =    1.9730E+05    0.0000E+00    0.0000E+00  setid=       0
 node=  3034 local x,y,z forces =   -9.7839E+04    0.0000E+00    0.0000E+00  setid=       0
 node=  3042 local x,y,z forces =    9.7839E+04    0.0000E+00    0.0000E+00  setid=       0
             force resultants   =    2.5946E-08   -3.6384E+01   -1.4127E+07
 output at time =   2.40000E-03
 node=    59 local x,y,z forces =   -3.0268E-09    7.7626E+01   -1.4133E+07  setid=       0
 node=    59 local x,y,z moments=    0.0000E+00    0.0000E+00    0.0000E+00  setid=       0
 node=  2926 local x,y,z forces =    4.4571E+04    0.0000E+00    0.0000E+00  setid=       0
 node=  2934 local x,y,z forces =   -4.4571E+04    0.0000E+00    0.0000E+00  setid=       0
 node=  2935 local x,y,z forces =    6.8707E+04    0.0000E+00    0.0000E+00  setid=       0
 node=  2943 local x,y,z forces =   -6.8707E+04    0.0000E+00    0.0000E+00  setid=       0
 node=  2944 local x,y,z forces =    3.2945E+04    0.0000E+00    0.0000E+00  setid=       0
 node=  2952 local x,y,z forces =   -3.2945E+04    0.0000E+00    0.0000E+00  setid=       0
 node=  2953 local x,y,z forces =   -3.6954E+03    0.0000E+00    0.0000E+00  setid=       0
 node=  2961 local x,y,z forces =    3.6954E+03    0.0000E+00    0.0000E+00  setid=       0
 node=  2962 local x,y,z forces =   -5.0791E+04    0.0000E+00    0.0000E+00  setid=       0
 node=  2970 local x,y,z forces =    5.0791E+04    0.0000E+00    0.0000E+00  setid=       0
 node=  2971 local x,y,z forces =   -5.6131E+04    0.0000E+00    0.0000E+00  setid=       0
 node=  2979 local x,y,z forces =    5.6131E+04    0.0000E+00    0.0000E+00  setid=       0
 node=  2980 local x,y,z forces =   -5.4677E+04    0.0000E+00    0.0000E+00  setid=       0
 node=  2988 local x,y,z forces =    5.4677E+04    0.0000E+00    0.0000E+00  setid=       0
 node=  2989 local x,y,z forces =   -1.2581E+05    0.0000E+00    0.0000E+00  setid=       0
 node=  2997 local x,y,z forces =    1.2581E+05    0.0000E+00    0.0000E+00  setid=       0
 node=  2998 local x,y,z forces =   -1.9052E+05    0.0000E+00    0.0000E+00  setid=       0
 node=  3006 local x,y,z forces =    1.9052E+05    0.0000E+00    0.0000E+00  setid=       0
 node=  3007 local x,y,z forces =   -2.1329E+05    0.0000E+00    0.0000E+00  setid=       0
 node=  3015 local x,y,z forces =    2.1329E+05    0.0000E+00    0.0000E+00  setid=       0
 node=  3016 local x,y,z forces =   -2.4778E+05    0.0000E+00    0.0000E+00  setid=       0
 node=  3024 local x,y,z forces =    2.4778E+05    0.0000E+00    0.0000E+00  setid=       0
 node=  3025 local x,y,z forces =   -2.7582E+05    0.0000E+00    0.0000E+00  setid=       0
 node=  3033 local x,y,z forces =    2.7582E+05    0.0000E+00    0.0000E+00  setid=       0
 node=  3034 local x,y,z forces =   -1.3994E+05    0.0000E+00    0.0000E+00  setid=       0
 node=  3042 local x,y,z forces =    1.3994E+05    0.0000E+00    0.0000E+00  setid=       0
             force resultants   =    5.5472E-08    7.7626E+01   -1.4133E+07
 output at time =   2.60000E-03
 node=    59 local x,y,z forces =    4.1910E-09    3.8838E+01   -1.4136E+07  setid=       0
 node=    59 local x,y,z moments=    0.0000E+00    0.0000E+00    0.0000E+00  setid=       0
 node=  2926 local x,y,z forces =    7.2782E+04    0.0000E+00    0.0000E+00  setid=       0
 node=  2934 local x,y,z forces =   -7.2782E+04    0.0000E+00    0.0000E+00  setid=       0
 node=  2935 local x,y,z forces =    1.2148E+05    0.0000E+00    0.0000E+00  setid=       0
 node=  2943 local x,y,z forces =   -1.2148E+05    0.0000E+00    0.0000E+00  setid=       0
 node=  2944 local x,y,z forces =    7.5957E+04    0.0000E+00    0.0000E+00  setid=       0
 node=  2952 local x,y,z forces =   -7.5957E+04    0.0000E+00    0.0000E+00  setid=       0
 node=  2953 local x,y,z forces =    2.8375E+04    0.0000E+00    0.0000E+00  setid=       0
 node=  2961 local x,y,z forces =   -2.8375E+04    0.0000E+00    0.0000E+00  setid=       0
 node=  2962 local x,y,z forces =   -2.9453E+04    0.0000E+00    0.0000E+00  setid=       0
 node=  2970 local x,y,z forces =    2.9453E+04    0.0000E+00    0.0000E+00  setid=       0
 node=  2971 local x,y,z forces =   -4.5508E+04    0.0000E+00    0.0000E+00  setid=       0
 node=  2979 local x,y,z forces =    4.5508E+04    0.0000E+00    0.0000E+00  setid=       0
 node=  2980 local x,y,z forces =   -5.4756E+04    0.0000E+00    0.0000E+00  setid=       0
 node=  2988 local x,y,z forces =    5.4756E+04    0.0000E+00    0.0000E+00  setid=       0
 node=  2989 local x,y,z forces =   -1.3655E+05    0.0000E+00    0.0000E+00  setid=       0
 node=  2997 local x,y,z forces =    1.3655E+05    0.0000E+00    0.0000E+00  setid=       0
 node=  2998 local x,y,z forces =   -2.1192E+05    0.0000E+00    0.0000E+00  setid=       0
 node=  3006 local x,y,z forces =    2.1192E+05    0.0000E+00    0.0000E+00  setid=       0
 node=  3007 local x,y,z forces =   -2.4538E+05    0.0000E+00    0.0000E+00  setid=       0
 node=  3015 local x,y,z forces =    2.4538E+05    0.0000E+00    0.0000E+00  setid=       0
 node=  3016 local x,y,z forces =   -2.9073E+05    0.0000E+00    0.0000E+00  setid=       0
 node=  3024 local x,y,z forces =    2.9073E+05    0.0000E+00    0.0000E+00  setid=       0
 node=  3025 local x,y,z forces =   -3.2852E+05    0.0000E+00    0.0000E+00  setid=       0
 node=  3033 local x,y,z forces =    3.2852E+05    0.0000E+00    0.0000E+00  setid=       0
 node=  3034 local x,y,z forces =   -1.6821E+05    0.0000E+00    0.0000E+00  setid=       0
 node=  3042 local x,y,z forces =    1.6821E+05    0.0000E+00    0.0000E+00  setid=       0
             force resultants   =    2.6223E-08    3.8838E+01   -1.4136E+07
 output at time =   2.80000E-03
 node=    59 local x,y,z forces =    6.7521E-09    9.4874E+01   -1.4139E+07  setid=       0
 node=    59 local x,y,z moments=    0.0000E+00    0.0000E+00    0.0000E+00  setid=       0
 node=  2926 local x,y,z forces =    9.5546E+04    0.0000E+00    0.0000E+00  setid=       0
 node=  2934 local x,y,z forces =   -9.5546E+04    0.0000E+00    0.0000E+00  setid=       0
 node=  2935 local x,y,z forces =    1.6407E+05    0.0000E+00    0.0000E+00  setid=       0
 node=  2943 local x,y,z forces =   -1.6407E+05    0.0000E+00    0.0000E+00  setid=       0
 node=  2944 local x,y,z forces =    1.1068E+05    0.0000E+00    0.0000E+00  setid=       0
 node=  2952 local x,y,z forces =   -1.1068E+05    0.0000E+00    0.0000E+00  setid=       0
 node=  2953 local x,y,z forces =    5.4258E+04    0.0000E+00    0.0000E+00  setid=       0
 node=  2961 local x,y,z forces =   -5.4258E+04    0.0000E+00    0.0000E+00  setid=       0
 node=  2962 local x,y,z forces =   -1.2236E+04    0.0000E+00    0.0000E+00  setid=       0
 node=  2970 local x,y,z forces =    1.2236E+04    0.0000E+00    0.0000E+00  setid=       0
 node=  2971 local x,y,z forces =   -3.6944E+04    0.0000E+00    0.0000E+00  setid=       0
 node=  2979 local x,y,z forces =    3.6944E+04    0.0000E+00    0.0000E+00  setid=       0
 node=  2980 local x,y,z forces =   -5.4835E+04    0.0000E+00    0.0000E+00  setid=       0
 node=  2988 local x,y,z forces =    5.4835E+04    0.0000E+00    0.0000E+00  setid=       0
 node=  2989 local x,y,z forces =   -1.4524E+05    0.0000E+00    0.0000E+00  setid=       0
 node=  2997 local x,y,z forces =    1.4524E+05    0.0000E+00    0.0000E+00  setid=       0
 node=  2998 local x,y,z forces =   -2.2920E+05    0.0000E+00    0.0000E+00  setid=       0
 node=  3006 local x,y,z forces =    2.2920E+05    0.0000E+00    0.0000E+00  setid=       0
 node=  3007 local x,y,z forces =   -2.7128E+05    0.0000E+00    0.0000E+00  setid=       0
 node=  3015 local x,y,z forces =    2.7128E+05    0.0000E+00    0.0000E+00  setid=       0
 node=  3016 local x,y,z forces =   -3.2538E+05    0.0000E+00    0.0000E+00  setid=       0
 node=  3024 local x,y,z forces =    3.2538E+05    0.0000E+00    0.0000E+00  setid=       0
 node=  3025 local x,y,z forces =   -3.7105E+05    0.0000E+00    0.0000E+00  setid=       0
 node=  3033 local x,y,z forces =    3.7105E+05    0.0000E+00    0.0000E+00  setid=       0
 node=  3034 local x,y,z forces =   -1.9104E+05    0.0000E+00    0.0000E+00  setid=       0
 node=  3042 local x,y,z forces =    1.9104E+05    0.0000E+00    0.0000E+00  setid=       0
             force resultants   =    6.3912E-08    9.4874E+01   -1.4139E+07
 output at time =   3.00000E-03
 node=    59 local x,y,z forces =   -2.9337E-08    8.4618E+01   -1.4141E+07  setid=       0
 node=    59 local x,y,z moments=    0.0000E+00    0.0000E+00    0.0000E+00  setid=       0
 node=  2926 local x,y,z forces =    1.1516E+05    0.0000E+00    0.0000E+00  setid=       0
 node=  2934 local x,y,z forces =   -1.1516E+05    0.0000E+00    0.0000E+00  setid=       0
 node=  2935 local x,y,z forces =    2.0079E+05    0.0000E+00    0.0000E+00  setid=       0
 node=  2943 local x,y,z forces =   -2.0079E+05    0.0000E+00    0.0000E+00  setid=       0
 node=  2944 local x,y,z forces =    1.4061E+05    0.0000E+00    0.0000E+00  setid=       0
 node=  2952 local x,y,z forces =   -1.4061E+05    0.0000E+00    0.0000E+00  setid=       0
 node=  2953 local x,y,z forces =    7.6565E+04    0.0000E+00    0.0000E+00  setid=       0
 node=  2961 local x,y,z forces =   -7.6565E+04    0.0000E+00    0.0000E+00  setid=       0
 node=  2962 local x,y,z forces =    2.5995E+03    0.0000E+00    0.0000E+00  setid=       0
 node=  2970 local x,y,z forces =   -2.5995E+03    0.0000E+00    0.0000E+00  setid=       0
 node=  2971 local x,y,z forces =   -2.9572E+04    0.0000E+00    0.0000E+00  setid=       0
 node=  2979 local x,y,z forces =    2.9572E+04    0.0000E+00    0.0000E+00  setid=       0
 node=  2980 local x,y,z forces =   -5.4915E+04    0.0000E+00    0.0000E+00  setid=       0
 node=  2988 local x,y,z forces =    5.4915E+04    0.0000E+00    0.0000E+00  setid=       0
 node=  2989 local x,y,z forces =   -1.5273E+05    0.0000E+00    0.0000E+00  setid=       0
 node=  2997 local x,y,z forces =    1.5273E+05    0.0000E+00    0.0000E+00  setid=       0
 node=  2998 local x,y,z forces =   -2.4409E+05    0.0000E+00    0.0000E+00  setid=       0
 node=  3006 local x,y,z forces =    2.4409E+05    0.0000E+00    0.0000E+00  setid=       0
 node=  3007 local x,y,z forces =   -2.9360E+05    0.0000E+00    0.0000E+00  setid=       0
 node=  3015 local x,y,z forces =    2.9360E+05    0.0000E+00    0.0000E+00  setid=       0
 node=  3016 local x,y,z forces =   -3.5523E+05    0.0000E+00    0.0000E+00  setid=       0
 node=  3024 local x,y,z forces =    3.5523E+05    0.0000E+00    0.0000E+00  setid=       0
 node=  3025 local x,y,z forces =   -4.0769E+05    0.0000E+00    0.0000E+00  setid=       0
 node=  3033 local x,y,z forces =    4.0769E+05    0.0000E+00    0.0000E+00  setid=       0
 node=  3034 local x,y,z forces =   -2.1071E+05    0.0000E+00    0.0000E+00  setid=       0
 node=  3042 local x,y,z forces =    2.1071E+05    0.0000E+00    0.0000E+00  setid=       0
             force resultants   =   -3.0268E-08    8.4618E+01   -1.4141E+07
 output at time =   3.20000E-03
 node=    59 local x,y,z forces =    1.7229E-08    9.7682E+01   -1.4143E+07  setid=       0
 node=    59 local x,y,z moments=    0.0000E+00    0.0000E+00    0.0000E+00  setid=       0
 node=  2926 local x,y,z forces =    1.3266E+05    0.0000E+00    0.0000E+00  setid=       0
 node=  2934 local x,y,z forces =   -1.3266E+05    0.0000E+00    0.0000E+00  setid=       0
 node=  2935 local x,y,z forces =    2.3356E+05    0.0000E+00    0.0000E+00  setid=       0
 node=  2943 local x,y,z forces =   -2.3356E+05    0.0000E+00    0.0000E+00  setid=       0
 node=  2944 local x,y,z forces =    1.6733E+05    0.0000E+00    0.0000E+00  setid=       0
 node=  2952 local x,y,z forces =   -1.6733E+05    0.0000E+00    0.0000E+00  setid=       0
 node=  2953 local x,y,z forces =    9.6476E+04    0.0000E+00    0.0000E+00  setid=       0
 node=  2961 local x,y,z forces =   -9.6476E+04    0.0000E+00    0.0000E+00  setid=       0
 node=  2962 local x,y,z forces =    1.5842E+04    0.0000E+00    0.0000E+00  setid=       0
 node=  2970 local x,y,z forces =   -1.5842E+04    0.0000E+00    0.0000E+00  setid=       0
 node=  2971 local x,y,z forces =   -2.2995E+04    0.0000E+00    0.0000E+00  setid=       0
 node=  2979 local x,y,z forces =    2.2995E+04    0.0000E+00    0.0000E+00  setid=       0
 node=  2980 local x,y,z forces =   -5.4991E+04    0.0000E+00    0.0000E+00  setid=       0
 node=  2988 local x,y,z forces =    5.4991E+04    0.0000E+00    0.0000E+00  setid=       0
 node=  2989 local x,y,z forces =   -1.5941E+05    0.0000E+00    0.0000E+00  setid=       0
 node=  2997 local x,y,z forces =    1.5941E+05    0.0000E+00    0.0000E+00  setid=       0
 node=  2998 local x,y,z forces =   -2.5738E+05    0.0000E+00    0.0000E+00  setid=       0
 node=  3006 local x,y,z forces =    2.5738E+05    0.0000E+00    0.0000E+00  setid=       0
 node=  3007 local x,y,z forces =   -3.1351E+05    0.0000E+00    0.0000E+00  setid=       0
 node=  3015 local x,y,z forces =    3.1351E+05    0.0000E+00    0.0000E+00  setid=       0
 node=  3016 local x,y,z forces =   -3.8187E+05    0.0000E+00    0.0000E+00  setid=       0
 node=  3024 local x,y,z forces =    3.8187E+05    0.0000E+00    0.0000E+00  setid=       0
 node=  3025 local x,y,z forces =   -4.4038E+05    0.0000E+00    0.0000E+00  setid=       0
 node=  3033 local x,y,z forces =    4.4038E+05    0.0000E+00    0.0000E+00  setid=       0
 node=  3034 local x,y,z forces =   -2.2827E+05    0.0000E+00    0.0000E+00  setid=       0
 node=  3042 local x,y,z forces =    2.2827E+05    0.0000E+00    0.0000E+00  setid=       0
             force resultants   =   -1.7171E-08    9.7682E+01   -1.4143E+07
 output at time =   3.40000E-03
 node=    59 local x,y,z forces =    1.4668E-08    9.8047E+01   -1.4145E+07  setid=       0
 node=    59 local x,y,z moments=    0.0000E+00    0.0000E+00    0.0000E+00  setid=       0
 node=  2926 local x,y,z forces =    1.4861E+05    0.0000E+00    0.0000E+00  setid=       0
 node=  2934 local x,y,z forces =   -1.4861E+05    0.0000E+00    0.0000E+00  setid=       0
 node=  2935 local x,y,z forces =    2.6342E+05    0.0000E+00    0.0000E+00  setid=       0
 node=  2943 local x,y,z forces =   -2.6342E+05    0.0000E+00    0.0000E+00  setid=       0
 node=  2944 local x,y,z forces =    1.9168E+05    0.0000E+00    0.0000E+00  setid=       0
 node=  2952 local x,y,z forces =   -1.9168E+05    0.0000E+00    0.0000E+00  setid=       0
 node=  2953 local x,y,z forces =    1.1462E+05    0.0000E+00    0.0000E+00  setid=       0
 node=  2961 local x,y,z forces =   -1.1462E+05    0.0000E+00    0.0000E+00  setid=       0
 node=  2962 local x,y,z forces =    2.7905E+04    0.0000E+00    0.0000E+00  setid=       0
 node=  2970 local x,y,z forces =   -2.7905E+04    0.0000E+00    0.0000E+00  setid=       0
 node=  2971 local x,y,z forces =   -1.7008E+04    0.0000E+00    0.0000E+00  setid=       0
 node=  2979 local x,y,z forces =    1.7008E+04    0.0000E+00    0.0000E+00  setid=       0
 node=  2980 local x,y,z forces =   -5.5069E+04    0.0000E+00    0.0000E+00  setid=       0
 node=  2988 local x,y,z forces =    5.5069E+04    0.0000E+00    0.0000E+00  setid=       0
 node=  2989 local x,y,z forces =   -1.6551E+05    0.0000E+00    0.0000E+00  setid=       0
 node=  2997 local x,y,z forces =    1.6551E+05    0.0000E+00    0.0000E+00  setid=       0
 node=  2998 local x,y,z forces =   -2.6948E+05    0.0000E+00    0.0000E+00  setid=       0
 node=  3006 local x,y,z forces =    2.6948E+05    0.0000E+00    0.0000E+00  setid=       0
 node=  3007 local x,y,z forces =   -3.3166E+05    0.0000E+00    0.0000E+00  setid=       0
 node=  3015 local x,y,z forces =    3.3166E+05    0.0000E+00    0.0000E+00  setid=       0
 node=  3016 local x,y,z forces =   -4.0613E+05    0.0000E+00    0.0000E+00  setid=       0
 node=  3024 local x,y,z forces =    4.0613E+05    0.0000E+00    0.0000E+00  setid=       0
 node=  3025 local x,y,z forces =   -4.7017E+05    0.0000E+00    0.0000E+00  setid=       0
 node=  3033 local x,y,z forces =    4.7017E+05    0.0000E+00    0.0000E+00  setid=       0
 node=  3034 local x,y,z forces =   -2.4428E+05    0.0000E+00    0.0000E+00  setid=       0
 node=  3042 local x,y,z forces =    2.4428E+05    0.0000E+00    0.0000E+00  setid=       0
             force resultants   =    1.0827E-08    9.8047E+01   -1.4145E+07
 output at time =   3.60000E-03
 node=    59 local x,y,z forces =    0.0000E+00    9.2808E+01   -1.4146E+07  setid=       0
 node=    59 local x,y,z moments=    0.0000E+00    0.0000E+00    0.0000E+00  setid=       0
 node=  2926 local x,y,z forces =    1.6335E+05    0.0000E+00    0.0000E+00  setid=       0
 node=  2934 local x,y,z forces =   -1.6335E+05    0.0000E+00    0.0000E+00  setid=       0
 node=  2935 local x,y,z forces =    2.9105E+05    0.0000E+00    0.0000E+00  setid=       0
 node=  2943 local x,y,z forces =   -2.9105E+05    0.0000E+00    0.0000E+00  setid=       0
 node=  2944 local x,y,z forces =    2.1420E+05    0.0000E+00    0.0000E+00  setid=       0
 node=  2952 local x,y,z forces =   -2.1420E+05    0.0000E+00    0.0000E+00  setid=       0
 node=  2953 local x,y,z forces =    1.3139E+05    0.0000E+00    0.0000E+00  setid=       0
 node=  2961 local x,y,z forces =   -1.3139E+05    0.0000E+00    0.0000E+00  setid=       0
 node=  2962 local x,y,z forces =    3.9059E+04    0.0000E+00    0.0000E+00  setid=       0
 node=  2970 local x,y,z forces =   -3.9059E+04    0.0000E+00    0.0000E+00  setid=       0
 node=  2971 local x,y,z forces =   -1.1476E+04    0.0000E+00    0.0000E+00  setid=       0
 node=  2979 local x,y,z forces =    1.1476E+04    0.0000E+00    0.0000E+00  setid=       0
 node=  2980 local x,y,z forces =   -5.5147E+04    0.0000E+00    0.0000E+00  setid=       0
 node=  2988 local x,y,z forces =    5.5147E+04    0.0000E+00    0.0000E+00  setid=       0
 node=  2989 local x,y,z forces =   -1.7116E+05    0.0000E+00    0.0000E+00  setid=       0
 node=  2997 local x,y,z forces =    1.7116E+05    0.0000E+00    0.0000E+00  setid=       0
 node=  2998 local x,y,z forces =   -2.8068E+05    0.0000E+00    0.0000E+00  setid=       0
 node=  3006 local x,y,z forces =    2.8068E+05    0.0000E+00    0.0000E+00  setid=       0
 node=  3007 local x,y,z forces =   -3.4844E+05    0.0000E+00    0.0000E+00  setid=       0
 node=  3015 local x,y,z forces =    3.4844E+05    0.0000E+00    0.0000E+00  setid=       0
 node=  3016 local x,y,z forces =   -4.2857E+05    0.0000E+00    0.0000E+00  setid=       0
 node=  3024 local x,y,z forces =    4.2857E+05    0.0000E+00    0.0000E+00  setid=       0
 node=  3025 local x,y,z forces =   -4.9772E+05    0.0000E+00    0.0000E+00  setid=       0
 node=  3033 local x,y,z forces =    4.9772E+05    0.0000E+00    0.0000E+00  setid=       0
 node=  3034 local x,y,z forces =   -2.5908E+05    0.0000E+00    0.0000E+00  setid=       0
 node=  3042 local x,y,z forces =    2.5908E+05    0.0000E+00    0.0000E+00  setid=       0
             force resultants   =    9.9302E-08    9.2808E+01   -1.4146E+07
 output at time =   3.80000E-03
 node=    59 local x,y,z forces =   -4.6566E-10    8.5947E+01   -1.4148E+07  setid=       0
 node=    59 local x,y,z moments=    0.0000E+00    0.0000E+00    0.0000E+00  setid=       0
 node=  2926 local x,y,z forces =    1.7713E+05    0.0000E+00    0.0000E+00  setid=       0
 node=  2934 local x,y,z forces =   -1.7713E+05    0.0000E+00    0.0000E+00  setid=       0
 node=  2935 local x,y,z forces =    3.1687E+05    0.0000E+00    0.0000E+00  setid=       0
 node=  2943 local x,y,z forces =   -3.1687E+05    0.0000E+00    0.0000E+00  setid=       0
 node=  2944 local x,y,z forces =    2.3525E+05    0.0000E+00    0.0000E+00  setid=       0
 node=  2952 local x,y,z forces =   -2.3525E+05    0.0000E+00    0.0000E+00  setid=       0
 node=  2953 local x,y,z forces =    1.4707E+05    0.0000E+00    0.0000E+00  setid=       0
 node=  2961 local x,y,z forces =   -1.4707E+05    0.0000E+00    0.0000E+00  setid=       0
 node=  2962 local x,y,z forces =    4.9483E+04    0.0000E+00    0.0000E+00  setid=       0
 node=  2970 local x,y,z forces =   -4.9483E+04    0.0000E+00    0.0000E+00  setid=       0
 node=  2971 local x,y,z forces =   -6.3083E+03    0.0000E+00    0.0000E+00  setid=       0
 node=  2979 local x,y,z forces =    6.3083E+03    0.0000E+00    0.0000E+00  setid=       0
 node=  2980 local x,y,z forces =   -5.5226E+04    0.0000E+00    0.0000E+00  setid=       0
 node=  2988 local x,y,z forces =    5.5226E+04    0.0000E+00    0.0000E+00  setid=       0
 node=  2989 local x,y,z forces =   -1.7644E+05    0.0000E+00    0.0000E+00  setid=       0
 node=  2997 local x,y,z forces =    1.7644E+05    0.0000E+00    0.0000E+00  setid=       0
 node=  2998 local x,y,z forces =   -2.9116E+05    0.0000E+00    0.0000E+00  setid=       0
 node=  3006 local x,y,z forces =    2.9116E+05    0.0000E+00    0.0000E+00  setid=       0
 node=  3007 local x,y,z forces =   -3.6413E+05    0.0000E+00    0.0000E+00  setid=       0
 node=  3015 local x,y,z forces =    3.6413E+05    0.0000E+00    0.0000E+00  setid=       0
 node=  3016 local x,y,z forces =   -4.4954E+05    0.0000E+00    0.0000E+00  setid=       0
 node=  3024 local x,y,z forces =    4.4954E+05    0.0000E+00    0.0000E+00  setid=       0
 node=  3025 local x,y,z forces =   -5.2346E+05    0.0000E+00    0.0000E+00  setid=       0
 node=  3033 local x,y,z forces =    5.2346E+05    0.0000E+00    0.0000E+00  setid=       0
 node=  3034 local x,y,z forces =   -2.7292E+05    0.0000E+00    0.0000E+00  setid=       0
 node=  3042 local x,y,z forces =    2.7292E+05    0.0000E+00    0.0000E+00  setid=       0
             force resultants   =    1.9616E-08    8.5947E+01   -1.4148E+07
 output at time =   4.00000E-03
 node=    59 local x,y,z forces =   -7.6834E-09    7.8949E+01   -1.4150E+07  setid=       0
 node=    59 local x,y,z moments=    0.0000E+00    0.0000E+00    0.0000E+00  setid=       0
 node=  2926 local x,y,z forces =    1.9012E+05    0.0000E+00    0.0000E+00  setid=       0
 node=  2934 local x,y,z forces =   -1.9012E+05    0.0000E+00    0.0000E+00  setid=       0
 node=  2935 local x,y,z forces =    3.4120E+05    0.0000E+00    0.0000E+00  setid=       0
 node=  2943 local x,y,z forces =   -3.4120E+05    0.0000E+00    0.0000E+00  setid=       0
 node=  2944 local x,y,z forces =    2.5509E+05    0.0000E+00    0.0000E+00  setid=       0
 node=  2952 local x,y,z forces =   -2.5509E+05    0.0000E+00    0.0000E+00  setid=       0
 node=  2953 local x,y,z forces =    1.6185E+05    0.0000E+00    0.0000E+00  setid=       0
 node=  2961 local x,y,z forces =   -1.6185E+05    0.0000E+00    0.0000E+00  setid=       0
 node=  2962 local x,y,z forces =    5.9304E+04    0.0000E+00    0.0000E+00  setid=       0
 node=  2970 local x,y,z forces =   -5.9304E+04    0.0000E+00    0.0000E+00  setid=       0
 node=  2971 local x,y,z forces =   -1.4424E+03    0.0000E+00    0.0000E+00  setid=       0
 node=  2979 local x,y,z forces =    1.4424E+03    0.0000E+00    0.0000E+00  setid=       0
 node=  2980 local x,y,z forces =   -5.5304E+04    0.0000E+00    0.0000E+00  setid=       0
 node=  2988 local x,y,z forces =    5.5304E+04    0.0000E+00    0.0000E+00  setid=       0
 node=  2989 local x,y,z forces =   -1.8142E+05    0.0000E+00    0.0000E+00  setid=       0
 node=  2997 local x,y,z forces =    1.8142E+05    0.0000E+00    0.0000E+00  setid=       0
 node=  2998 local x,y,z forces =   -3.0102E+05    0.0000E+00    0.0000E+00  setid=       0
 node=  3006 local x,y,z forces =    3.0102E+05    0.0000E+00    0.0000E+00  setid=       0
 node=  3007 local x,y,z forces =   -3.7891E+05    0.0000E+00    0.0000E+00  setid=       0
 node=  3015 local x,y,z forces =    3.7891E+05    0.0000E+00    0.0000E+00  setid=       0
 node=  3016 local x,y,z forces =   -4.6930E+05    0.0000E+00    0.0000E+00  setid=       0
 node=  3024 local x,y,z forces =    4.6930E+05    0.0000E+00    0.0000E+00  setid=       0
 node=  3025 local x,y,z forces =   -5.4771E+05    0.0000E+00    0.0000E+00  setid=       0
 node=  3033 local x,y,z forces =    5.4771E+05    0.0000E+00    0.0000E+00  setid=       0
 node=  3034 local x,y,z forces =   -2.8596E+05    0.0000E+00    0.0000E+00  setid=       0
 node=  3042 local x,y,z forces =    2.8596E+05    0.0000E+00    0.0000E+00  setid=       0
             force resultants   =    4.7032E-08    7.8949E+01   -1.4150E+07
 output at time =   4.20000E-03
 node=    59 local x,y,z forces =   -1.6298E-08    7.2361E+01   -1.4152E+07  setid=       0
 node=    59 local x,y,z moments=    0.0000E+00    0.0000E+00    0.0000E+00  setid=       0
 node=  2926 local x,y,z forces =    2.0243E+05    0.0000E+00    0.0000E+00  setid=       0
 node=  2934 local x,y,z forces =   -2.0243E+05    0.0000E+00    0.0000E+00  setid=       0
 node=  2935 local x,y,z forces =    3.6427E+05    0.0000E+00    0.0000E+00  setid=       0
 node=  2943 local x,y,z forces =   -3.6427E+05    0.0000E+00    0.0000E+00  setid=       0
 node=  2944 local x,y,z forces =    2.7390E+05    0.0000E+00    0.0000E+00  setid=       0
 node=  2952 local x,y,z forces =   -2.7390E+05    0.0000E+00    0.0000E+00  setid=       0
 node=  2953 local x,y,z forces =    1.7586E+05    0.0000E+00    0.0000E+00  setid=       0
 node=  2961 local x,y,z forces =   -1.7586E+05    0.0000E+00    0.0000E+00  setid=       0
 node=  2962 local x,y,z forces =    6.8617E+04    0.0000E+00    0.0000E+00  setid=       0
 node=  2970 local x,y,z forces =   -6.8617E+04    0.0000E+00    0.0000E+00  setid=       0
 node=  2971 local x,y,z forces =    3.1691E+03    0.0000E+00    0.0000E+00  setid=       0
 node=  2979 local x,y,z forces =   -3.1691E+03    0.0000E+00    0.0000E+00  setid=       0
 node=  2980 local x,y,z forces =   -5.5383E+04    0.0000E+00    0.0000E+00  setid=       0
 node=  2988 local x,y,z forces =    5.5383E+04    0.0000E+00    0.0000E+00  setid=       0
 node=  2989 local x,y,z forces =   -1.8614E+05    0.0000E+00    0.0000E+00  setid=       0
 node=  2997 local x,y,z forces =    1.8614E+05    0.0000E+00    0.0000E+00  setid=       0
 node=  2998 local x,y,z forces =   -3.1038E+05    0.0000E+00    0.0000E+00  setid=       0
 node=  3006 local x,y,z forces =    3.1038E+05    0.0000E+00    0.0000E+00  setid=       0
 node=  3007 local x,y,z forces =   -3.9292E+05    0.0000E+00    0.0000E+00  setid=       0
 node=  3015 local x,y,z forces =    3.9292E+05    0.0000E+00    0.0000E+00  setid=       0
 node=  3016 local x,y,z forces =   -4.8803E+05    0.0000E+00    0.0000E+00  setid=       0
 node=  3024 local x,y,z forces =    4.8803E+05    0.0000E+00    0.0000E+00  setid=       0
 node=  3025 local x,y,z forces =   -5.7071E+05    0.0000E+00    0.0000E+00  setid=       0
 node=  3033 local x,y,z forces =    5.7071E+05    0.0000E+00    0.0000E+00  setid=       0
 node=  3034 local x,y,z forces =   -2.9832E+05    0.0000E+00    0.0000E+00  setid=       0
 node=  3042 local x,y,z forces =    2.9832E+05    0.0000E+00    0.0000E+00  setid=       0
             force resultants   =   -5.5530E-08    7.2361E+01   -1.4152E+07
 output at time =   4.40000E-03
 node=    59 local x,y,z forces =    4.8894E-09    6.6356E+01   -1.4154E+07  setid=       0
 node=    59 local x,y,z moments=    0.0000E+00    0.0000E+00    0.0000E+00  setid=       0
 node=  2926 local x,y,z forces =    2.1416E+05    0.0000E+00    0.0000E+00  setid=       0
 node=  2934 local x,y,z forces =   -2.1416E+05    0.0000E+00    0.0000E+00  setid=       0
 node=  2935 local x,y,z forces =    3.8627E+05    0.0000E+00    0.0000E+00  setid=       0
 node=  2943 local x,y,z forces =   -3.8627E+05    0.0000E+00    0.0000E+00  setid=       0
 node=  2944 local x,y,z forces =    2.9184E+05    0.0000E+00    0.0000E+00  setid=       0
 node=  2952 local x,y,z forces =   -2.9184E+05    0.0000E+00    0.0000E+00  setid=       0
 node=  2953 local x,y,z forces =    1.8922E+05    0.0000E+00    0.0000E+00  setid=       0
 node=  2961 local x,y,z forces =   -1.8922E+05    0.0000E+00    0.0000E+00  setid=       0
 node=  2962 local x,y,z forces =    7.7493E+04    0.0000E+00    0.0000E+00  setid=       0
 node=  2970 local x,y,z forces =   -7.7493E+04    0.0000E+00    0.0000E+00  setid=       0
 node=  2971 local x,y,z forces =    7.5621E+03    0.0000E+00    0.0000E+00  setid=       0
 node=  2979 local x,y,z forces =   -7.5621E+03    0.0000E+00    0.0000E+00  setid=       0
 node=  2980 local x,y,z forces =   -5.5461E+04    0.0000E+00    0.0000E+00  setid=       0
 node=  2988 local x,y,z forces =    5.5461E+04    0.0000E+00    0.0000E+00  setid=       0
 node=  2989 local x,y,z forces =   -1.9065E+05    0.0000E+00    0.0000E+00  setid=       0
 node=  2997 local x,y,z forces =    1.9065E+05    0.0000E+00    0.0000E+00  setid=       0
 node=  2998 local x,y,z forces =   -3.1930E+05    0.0000E+00    0.0000E+00  setid=       0
 node=  3006 local x,y,z forces =    3.1930E+05    0.0000E+00    0.0000E+00  setid=       0
 node=  3007 local x,y,z forces =   -4.0629E+05    0.0000E+00    0.0000E+00  setid=       0
 node=  3015 local x,y,z forces =    4.0629E+05    0.0000E+00    0.0000E+00  setid=       0
 node=  3016 local x,y,z forces =   -5.0589E+05    0.0000E+00    0.0000E+00  setid=       0
 node=  3024 local x,y,z forces =    5.0589E+05    0.0000E+00    0.0000E+00  setid=       0
 node=  3025 local x,y,z forces =   -5.9263E+05    0.0000E+00    0.0000E+00  setid=       0
 node=  3033 local x,y,z forces =    5.9263E+05    0.0000E+00    0.0000E+00  setid=       0
 node=  3034 local x,y,z forces =   -3.1012E+05    0.0000E+00    0.0000E+00  setid=       0
 node=  3042 local x,y,z forces =    3.1012E+05    0.0000E+00    0.0000E+00  setid=       0
             force resultants   =   -5.4832E-08    6.6356E+01   -1.4154E+07
 output at time =   4.60000E-03
 node=    59 local x,y,z forces =   -1.7462E-08    6.0956E+01   -1.4156E+07  setid=       0
 node=    59 local x,y,z moments=    0.0000E+00    0.0000E+00    0.0000E+00  setid=       0
 node=  2926 local x,y,z forces =    2.2539E+05    0.0000E+00    0.0000E+00  setid=       0
 node=  2934 local x,y,z forces =   -2.2539E+05    0.0000E+00    0.0000E+00  setid=       0
 node=  2935 local x,y,z forces =    4.0733E+05    0.0000E+00    0.0000E+00  setid=       0
 node=  2943 local x,y,z forces =   -4.0733E+05    0.0000E+00    0.0000E+00  setid=       0
 node=  2944 local x,y,z forces =    3.0901E+05    0.0000E+00    0.0000E+00  setid=       0
 node=  2952 local x,y,z forces =   -3.0901E+05    0.0000E+00    0.0000E+00  setid=       0
 node=  2953 local x,y,z forces =    2.0200E+05    0.0000E+00    0.0000E+00  setid=       0
 node=  2961 local x,y,z forces =   -2.0200E+05    0.0000E+00    0.0000E+00  setid=       0
 node=  2962 local x,y,z forces =    8.5988E+04    0.0000E+00    0.0000E+00  setid=       0
 node=  2970 local x,y,z forces =   -8.5988E+04    0.0000E+00    0.0000E+00  setid=       0
 node=  2971 local x,y,z forces =    1.1765E+04    0.0000E+00    0.0000E+00  setid=       0
 node=  2979 local x,y,z forces =   -1.1765E+04    0.0000E+00    0.0000E+00  setid=       0
 node=  2980 local x,y,z forces =   -5.5540E+04    0.0000E+00    0.0000E+00  setid=       0
 node=  2988 local x,y,z forces =    5.5540E+04    0.0000E+00    0.0000E+00  setid=       0
 node=  2989 local x,y,z forces =   -1.9496E+05    0.0000E+00    0.0000E+00  setid=       0
 node=  2997 local x,y,z forces =    1.9496E+05    0.0000E+00    0.0000E+00  setid=       0
 node=  2998 local x,y,z forces =   -3.2784E+05    0.0000E+00    0.0000E+00  setid=       0
 node=  3006 local x,y,z forces =    3.2784E+05    0.0000E+00    0.0000E+00  setid=       0
 node=  3007 local x,y,z forces =   -4.1907E+05    0.0000E+00    0.0000E+00  setid=       0
 node=  3015 local x,y,z forces =    4.1907E+05    0.0000E+00    0.0000E+00  setid=       0
 node=  3016 local x,y,z forces =   -5.2298E+05    0.0000E+00    0.0000E+00  setid=       0
 node=  3024 local x,y,z forces =    5.2298E+05    0.0000E+00    0.0000E+00  setid=       0
 node=  3025 local x,y,z forces =   -6.1361E+05    0.0000E+00    0.0000E+00  setid=       0
 node=  3033 local x,y,z forces =    6.1361E+05    0.0000E+00    0.0000E+00  setid=       0
 node=  3034 local x,y,z forces =   -3.2140E+05    0.0000E+00    0.0000E+00  setid=       0
 node=  3042 local x,y,z forces =    3.2140E+05    0.0000E+00    0.0000E+00  setid=       0
             force resultants   =    2.8871E-08    6.0956E+01   -1.4156E+07
 output at time =   4.80000E-03
 node=    59 local x,y,z forces =    9.3132E-10    5.6124E+01   -1.4157E+07  setid=       0
 node=    59 local x,y,z moments=    0.0000E+00    0.0000E+00    0.0000E+00  setid=       0
 node=  2926 local x,y,z forces =    2.3617E+05    0.0000E+00    0.0000E+00  setid=       0
 node=  2934 local x,y,z forces =   -2.3617E+05    0.0000E+00    0.0000E+00  setid=       0
 node=  2935 local x,y,z forces =    4.2756E+05    0.0000E+00    0.0000E+00  setid=       0
 node=  2943 local x,y,z forces =   -4.2756E+05    0.0000E+00    0.0000E+00  setid=       0
 node=  2944 local x,y,z forces =    3.2551E+05    0.0000E+00    0.0000E+00  setid=       0
 node=  2952 local x,y,z forces =   -3.2551E+05    0.0000E+00    0.0000E+00  setid=       0
 node=  2953 local x,y,z forces =    2.1428E+05    0.0000E+00    0.0000E+00  setid=       0
 node=  2961 local x,y,z forces =   -2.1428E+05    0.0000E+00    0.0000E+00  setid=       0
 node=  2962 local x,y,z forces =    9.4147E+04    0.0000E+00    0.0000E+00  setid=       0
 node=  2970 local x,y,z forces =   -9.4147E+04    0.0000E+00    0.0000E+00  setid=       0
 node=  2971 local x,y,z forces =    1.5800E+04    0.0000E+00    0.0000E+00  setid=       0
 node=  2979 local x,y,z forces =   -1.5800E+04    0.0000E+00    0.0000E+00  setid=       0
 node=  2980 local x,y,z forces =   -5.5619E+04    0.0000E+00    0.0000E+00  setid=       0
 node=  2988 local x,y,z forces =    5.5619E+04    0.0000E+00    0.0000E+00  setid=       0
 node=  2989 local x,y,z forces =   -1.9911E+05    0.0000E+00    0.0000E+00  setid=       0
 node=  2997 local x,y,z forces =    1.9911E+05    0.0000E+00    0.0000E+00  setid=       0
 node=  2998 local x,y,z forces =   -3.3605E+05    0.0000E+00    0.0000E+00  setid=       0
 node=  3006 local x,y,z forces =    3.3605E+05    0.0000E+00    0.0000E+00  setid=       0
 node=  3007 local x,y,z forces =   -4.3136E+05    0.0000E+00    0.0000E+00  setid=       0
 node=  3015 local x,y,z forces =    4.3136E+05    0.0000E+00    0.0000E+00  setid=       0
 node=  3016 local x,y,z forces =   -5.3939E+05    0.0000E+00    0.0000E+00  setid=       0
 node=  3024 local x,y,z forces =    5.3939E+05    0.0000E+00    0.0000E+00  setid=       0
 node=  3025 local x,y,z forces =   -6.3376E+05    0.0000E+00    0.0000E+00  setid=       0
 node=  3033 local x,y,z forces =    6.3376E+05    0.0000E+00    0.0000E+00  setid=       0
 node=  3034 local x,y,z forces =   -3.3225E+05    0.0000E+00    0.0000E+00  setid=       0
 node=  3042 local x,y,z forces =    3.3225E+05    0.0000E+00    0.0000E+00  setid=       0
             force resultants   =    2.0023E-08    5.6124E+01   -1.4157E+07
 output at time =   5.00000E-03
 node=    59 local x,y,z forces =    6.2864E-09    5.1802E+01   -1.4159E+07  setid=       0
 node=    59 local x,y,z moments=    0.0000E+00    0.0000E+00    0.0000E+00  setid=       0
 node=  2926 local x,y,z forces =    2.4657E+05    0.0000E+00    0.0000E+00  setid=       0
 node=  2934 local x,y,z forces =   -2.4657E+05    0.0000E+00    0.0000E+00  setid=       0
 node=  2935 local x,y,z forces =    4.4706E+05    0.0000E+00    0.0000E+00  setid=       0
 node=  2943 local x,y,z forces =   -4.4706E+05    0.0000E+00    0.0000E+00  setid=       0
 node=  2944 local x,y,z forces =    3.4140E+05    0.0000E+00    0.0000E+00  setid=       0
 node=  2952 local x,y,z forces =   -3.4140E+05    0.0000E+00    0.0000E+00  setid=       0
 node=  2953 local x,y,z forces =    2.2612E+05    0.0000E+00    0.0000E+00  setid=       0
 node=  2961 local x,y,z forces =   -2.2612E+05    0.0000E+00    0.0000E+00  setid=       0
 node=  2962 local x,y,z forces =    1.0201E+05    0.0000E+00    0.0000E+00  setid=       0
 node=  2970 local x,y,z forces =   -1.0201E+05    0.0000E+00    0.0000E+00  setid=       0
 node=  2971 local x,y,z forces =    1.9685E+04    0.0000E+00    0.0000E+00  setid=       0
 node=  2979 local x,y,z forces =   -1.9685E+04    0.0000E+00    0.0000E+00  setid=       0
 node=  2980 local x,y,z forces =   -5.5697E+04    0.0000E+00    0.0000E+00  setid=       0
 node=  2988 local x,y,z forces =    5.5697E+04    0.0000E+00    0.0000E+00  setid=       0
 node=  2989 local x,y,z forces =   -2.0311E+05    0.0000E+00    0.0000E+00  setid=       0
 node=  2997 local x,y,z forces =    2.0311E+05    0.0000E+00    0.0000E+00  setid=       0
 node=  2998 local x,y,z forces =   -3.4395E+05    0.0000E+00    0.0000E+00  setid=       0
 node=  3006 local x,y,z forces =    3.4395E+05    0.0000E+00    0.0000E+00  setid=       0
 node=  3007 local x,y,z forces =   -4.4320E+05    0.0000E+00    0.0000E+00  setid=       0
 node=  3015 local x,y,z forces =    4.4320E+05    0.0000E+00    0.0000E+00  setid=       0
 node=  3016 local x,y,z forces =   -5.5521E+05    0.0000E+00    0.0000E+00  setid=       0
 node=  3024 local x,y,z forces =    5.5521E+05    0.0000E+00    0.0000E+00  setid=       0
 node=  3025 local x,y,z forces =   -6.5318E+05    0.0000E+00    0.0000E+00  setid=       0
 node=  3033 local x,y,z forces =    6.5318E+05    0.0000E+00    0.0000E+00  setid=       0
 node=  3034 local x,y,z forces =   -3.4270E+05    0.0000E+00    0.0000E+00  setid=       0
 node=  3042 local x,y,z forces =    3.4270E+05    0.0000E+00    0.0000E+00  setid=       0
             force resultants   =   -1.6938E-08    5.1802E+01   -1.4159E+07
 output at time =   5.20000E-03
 node=    59 local x,y,z forces =    1.2340E-08    4.7930E+01   -1.4161E+07  setid=       0
 node=    59 local x,y,z moments=    0.0000E+00    0.0000E+00    0.0000E+00  setid=       0
 node=  2926 local x,y,z forces =    2.5660E+05    0.0000E+00    0.0000E+00  setid=       0
 node=  2934 local x,y,z forces =   -2.5660E+05    0.0000E+00    0.0000E+00  setid=       0
 node=  2935 local x,y,z forces =    4.6589E+05    0.0000E+00    0.0000E+00  setid=       0
 node=  2943 local x,y,z forces =   -4.6589E+05    0.0000E+00    0.0000E+00  setid=       0
 node=  2944 local x,y,z forces =    3.5676E+05    0.0000E+00    0.0000E+00  setid=       0
 node=  2952 local x,y,z forces =   -3.5676E+05    0.0000E+00    0.0000E+00  setid=       0
 node=  2953 local x,y,z forces =    2.3755E+05    0.0000E+00    0.0000E+00  setid=       0
 node=  2961 local x,y,z forces =   -2.3755E+05    0.0000E+00    0.0000E+00  setid=       0
 node=  2962 local x,y,z forces =    1.0960E+05    0.0000E+00    0.0000E+00  setid=       0
 node=  2970 local x,y,z forces =   -1.0960E+05    0.0000E+00    0.0000E+00  setid=       0
 node=  2971 local x,y,z forces =    2.3437E+04    0.0000E+00    0.0000E+00  setid=       0
 node=  2979 local x,y,z forces =   -2.3437E+04    0.0000E+00    0.0000E+00  setid=       0
 node=  2980 local x,y,z forces =   -5.5776E+04    0.0000E+00    0.0000E+00  setid=       0
 node=  2988 local x,y,z forces =    5.5776E+04    0.0000E+00    0.0000E+00  setid=       0
 node=  2989 local x,y,z forces =   -2.0697E+05    0.0000E+00    0.0000E+00  setid=       0
 node=  2997 local x,y,z forces =    2.0697E+05    0.0000E+00    0.0000E+00  setid=       0
 node=  2998 local x,y,z forces =   -3.5159E+05    0.0000E+00    0.0000E+00  setid=       0
 node=  3006 local x,y,z forces =    3.5159E+05    0.0000E+00    0.0000E+00  setid=       0
 node=  3007 local x,y,z forces =   -4.5463E+05    0.0000E+00    0.0000E+00  setid=       0
 node=  3015 local x,y,z forces =    4.5463E+05    0.0000E+00    0.0000E+00  setid=       0
 node=  3016 local x,y,z forces =   -5.7048E+05    0.0000E+00    0.0000E+00  setid=       0
 node=  3024 local x,y,z forces =    5.7048E+05    0.0000E+00    0.0000E+00  setid=       0
 node=  3025 local x,y,z forces =   -6.7193E+05    0.0000E+00    0.0000E+00  setid=       0
 node=  3033 local x,y,z forces =    6.7193E+05    0.0000E+00    0.0000E+00  setid=       0
 node=  3034 local x,y,z forces =   -3.5279E+05    0.0000E+00    0.0000E+00  setid=       0
 node=  3042 local x,y,z forces =    3.5279E+05    0.0000E+00    0.0000E+00  setid=       0
             force resultants   =    7.8406E-08    4.7930E+01   -1.4161E+07
 output at time =   5.40000E-03
 node=    59 local x,y,z forces =   -9.7789E-09    2.5378E+02   -1.4163E+07  setid=       0
 node=    59 local x,y,z moments=    0.0000E+00    0.0000E+00    0.0000E+00  setid=       0
 node=  2926 local x,y,z forces =    2.6632E+05    0.0000E+00    0.0000E+00  setid=       0
 node=  2934 local x,y,z forces =   -2.6632E+05    0.0000E+00    0.0000E+00  setid=       0
 node=  2935 local x,y,z forces =    4.8413E+05    0.0000E+00    0.0000E+00  setid=       0
 node=  2943 local x,y,z forces =   -4.8413E+05    0.0000E+00    0.0000E+00  setid=       0
 node=  2944 local x,y,z forces =    3.7163E+05    0.0000E+00    0.0000E+00  setid=       0
 node=  2952 local x,y,z forces =   -3.7163E+05    0.0000E+00    0.0000E+00  setid=       0
 node=  2953 local x,y,z forces =    2.4862E+05    0.0000E+00    0.0000E+00  setid=       0
 node=  2961 local x,y,z forces =   -2.4862E+05    0.0000E+00    0.0000E+00  setid=       0
 node=  2962 local x,y,z forces =    1.1696E+05    0.0000E+00    0.0000E+00  setid=       0
 node=  2970 local x,y,z forces =   -1.1696E+05    0.0000E+00    0.0000E+00  setid=       0
 node=  2971 local x,y,z forces =    2.7069E+04    0.0000E+00    0.0000E+00  setid=       0
 node=  2979 local x,y,z forces =   -2.7069E+04    0.0000E+00    0.0000E+00  setid=       0
 node=  2980 local x,y,z forces =   -5.5854E+04    0.0000E+00    0.0000E+00  setid=       0
 node=  2988 local x,y,z forces =    5.5854E+04    0.0000E+00    0.0000E+00  setid=       0
 node=  2989 local x,y,z forces =   -2.1071E+05    0.0000E+00    0.0000E+00  setid=       0
 node=  2997 local x,y,z forces =    2.1071E+05    0.0000E+00    0.0000E+00  setid=       0
 node=  2998 local x,y,z forces =   -3.5899E+05    0.0000E+00    0.0000E+00  setid=       0
 node=  3006 local x,y,z forces =    3.5899E+05    0.0000E+00    0.0000E+00  setid=       0
 node=  3007 local x,y,z forces =   -4.6570E+05    0.0000E+00    0.0000E+00  setid=       0
 node=  3015 local x,y,z forces =    4.6570E+05    0.0000E+00    0.0000E+00  setid=       0
 node=  3016 local x,y,z forces =   -5.8527E+05    0.0000E+00    0.0000E+00  setid=       0
 node=  3024 local x,y,z forces =    5.8527E+05    0.0000E+00    0.0000E+00  setid=       0
 node=  3025 local x,y,z forces =   -6.9009E+05    0.0000E+00    0.0000E+00  setid=       0
 node=  3033 local x,y,z forces =    6.9009E+05    0.0000E+00    0.0000E+00  setid=       0
 node=  3034 local x,y,z forces =   -3.6257E+05    0.0000E+00    0.0000E+00  setid=       0
 node=  3042 local x,y,z forces =    3.6257E+05    0.0000E+00    0.0000E+00  setid=       0
             force resultants   =    3.9581E-08    2.5378E+02   -1.4163E+07
 output at time =   5.60000E-03
 node=    59 local x,y,z forces =   -1.4203E-08    2.3710E+02   -1.4164E+07  setid=       0
 node=    59 local x,y,z moments=    0.0000E+00    0.0000E+00    0.0000E+00  setid=       0
 node=  2926 local x,y,z forces =    2.7575E+05    0.0000E+00    0.0000E+00  setid=       0
 node=  2934 local x,y,z forces =   -2.7575E+05    0.0000E+00    0.0000E+00  setid=       0
 node=  2935 local x,y,z forces =    5.0182E+05    0.0000E+00    0.0000E+00  setid=       0
 node=  2943 local x,y,z forces =   -5.0182E+05    0.0000E+00    0.0000E+00  setid=       0
 node=  2944 local x,y,z forces =    3.8606E+05    0.0000E+00    0.0000E+00  setid=       0
 node=  2952 local x,y,z forces =   -3.8606E+05    0.0000E+00    0.0000E+00  setid=       0
 node=  2953 local x,y,z forces =    2.5935E+05    0.0000E+00    0.0000E+00  setid=       0
 node=  2961 local x,y,z forces =   -2.5935E+05    0.0000E+00    0.0000E+00  setid=       0
 node=  2962 local x,y,z forces =    1.2409E+05    0.0000E+00    0.0000E+00  setid=       0
 node=  2970 local x,y,z forces =   -1.2409E+05    0.0000E+00    0.0000E+00  setid=       0
 node=  2971 local x,y,z forces =    3.0589E+04    0.0000E+00    0.0000E+00  setid=       0
 node=  2979 local x,y,z forces =   -3.0589E+04    0.0000E+00    0.0000E+00  setid=       0
 node=  2980 local x,y,z forces =   -5.5933E+04    0.0000E+00    0.0000E+00  setid=       0
 node=  2988 local x,y,z forces =    5.5933E+04    0.0000E+00    0.0000E+00  setid=       0
 node=  2989 local x,y,z forces =   -2.1435E+05    0.0000E+00    0.0000E+00  setid=       0
 node=  2997 local x,y,z forces =    2.1435E+05    0.0000E+00    0.0000E+00  setid=       0
 node=  2998 local x,y,z forces =   -3.6616E+05    0.0000E+00    0.0000E+00  setid=       0
 node=  3006 local x,y,z forces =    3.6616E+05    0.0000E+00    0.0000E+00  setid=       0
 node=  3007 local x,y,z forces =   -4.7644E+05    0.0000E+00    0.0000E+00  setid=       0
 node=  3015 local x,y,z forces =    4.7644E+05    0.0000E+00    0.0000E+00  setid=       0
 node=  3016 local x,y,z forces =   -5.9961E+05    0.0000E+00    0.0000E+00  setid=       0
 node=  3024 local x,y,z forces =    5.9961E+05    0.0000E+00    0.0000E+00  setid=       0
 node=  3025 local x,y,z forces =   -7.0770E+05    0.0000E+00    0.0000E+00  setid=       0
 node=  3033 local x,y,z forces =    7.0770E+05    0.0000E+00    0.0000E+00  setid=       0
 node=  3034 local x,y,z forces =   -3.7205E+05    0.0000E+00    0.0000E+00  setid=       0
 node=  3042 local x,y,z forces =    3.7205E+05    0.0000E+00    0.0000E+00  setid=       0
             force resultants   =   -3.7893E-08    2.3710E+02   -1.4164E+07
 output at time =   5.80000E-03
 node=    59 local x,y,z forces =   -1.1642E-08    2.2261E+02   -1.4166E+07  setid=       0
 node=    59 local x,y,z moments=    0.0000E+00    0.0000E+00    0.0000E+00  setid=       0
 node=  2926 local x,y,z forces =    2.8491E+05    0.0000E+00    0.0000E+00  setid=       0
 node=  2934 local x,y,z forces =   -2.8491E+05    0.0000E+00    0.0000E+00  setid=       0
 node=  2935 local x,y,z forces =    5.1901E+05    0.0000E+00    0.0000E+00  setid=       0
 node=  2943 local x,y,z forces =   -5.1901E+05    0.0000E+00    0.0000E+00  setid=       0
 node=  2944 local x,y,z forces =    4.0008E+05    0.0000E+00    0.0000E+00  setid=       0
 node=  2952 local x,y,z forces =   -4.0008E+05    0.0000E+00    0.0000E+00  setid=       0
 node=  2953 local x,y,z forces =    2.6978E+05    0.0000E+00    0.0000E+00  setid=       0
[...]
 node=  3006 local x,y,z forces =    6.5735E+05    0.0000E+00    0.0000E+00  setid=       0
 node=  3007 local x,y,z forces =   -9.1150E+05    0.0000E+00    0.0000E+00  setid=       0
 node=  3015 local x,y,z forces =    9.1150E+05    0.0000E+00    0.0000E+00  setid=       0
 node=  3016 local x,y,z forces =   -1.1795E+06    0.0000E+00    0.0000E+00  setid=       0
 node=  3024 local x,y,z forces =    1.1795E+06    0.0000E+00    0.0000E+00  setid=       0
 node=  3025 local x,y,z forces =   -1.4201E+06    0.0000E+00    0.0000E+00  setid=       0
 node=  3033 local x,y,z forces =    1.4201E+06    0.0000E+00    0.0000E+00  setid=       0
 node=  3034 local x,y,z forces =   -7.5701E+05    0.0000E+00    0.0000E+00  setid=       0
 node=  3042 local x,y,z forces =    7.5701E+05    0.0000E+00    0.0000E+00  setid=       0
             force resultants   =    1.8859E-08    9.2705E+02   -1.4282E+07
 output at time =   1.88000E-02
 node=    59 local x,y,z forces =   -1.2806E-08    9.1280E+02   -1.4284E+07  setid=       0
 node=    59 local x,y,z moments=    0.0000E+00    0.0000E+00    0.0000E+00  setid=       0
 node=  2926 local x,y,z forces =    6.6118E+05    0.0000E+00    0.0000E+00  setid=       0
 node=  2934 local x,y,z forces =   -6.6118E+05    0.0000E+00    0.0000E+00  setid=       0
 node=  2935 local x,y,z forces =    1.2274E+06    0.0000E+00    0.0000E+00  setid=       0
 node=  2943 local x,y,z forces =   -1.2274E+06    0.0000E+00    0.0000E+00  setid=       0
 node=  2944 local x,y,z forces =    9.7795E+05    0.0000E+00    0.0000E+00  setid=       0
 node=  2952 local x,y,z forces =   -9.7795E+05    0.0000E+00    0.0000E+00  setid=       0
 node=  2953 local x,y,z forces =    6.9900E+05    0.0000E+00    0.0000E+00  setid=       0
 node=  2961 local x,y,z forces =   -6.9900E+05    0.0000E+00    0.0000E+00  setid=       0
 node=  2962 local x,y,z forces =    4.1561E+05    0.0000E+00    0.0000E+00  setid=       0
 node=  2970 local x,y,z forces =   -4.1561E+05    0.0000E+00    0.0000E+00  setid=       0
 node=  2971 local x,y,z forces =    1.7335E+05    0.0000E+00    0.0000E+00  setid=       0
 node=  2979 local x,y,z forces =   -1.7335E+05    0.0000E+00    0.0000E+00  setid=       0
 node=  2980 local x,y,z forces =   -6.1202E+04    0.0000E+00    0.0000E+00  setid=       0
 node=  2988 local x,y,z forces =    6.1202E+04    0.0000E+00    0.0000E+00  setid=       0
 node=  2989 local x,y,z forces =   -3.6459E+05    0.0000E+00    0.0000E+00  setid=       0
 node=  2997 local x,y,z forces =    3.6459E+05    0.0000E+00    0.0000E+00  setid=       0
 node=  2998 local x,y,z forces =   -6.6063E+05    0.0000E+00    0.0000E+00  setid=       0
 node=  3006 local x,y,z forces =    6.6063E+05    0.0000E+00    0.0000E+00  setid=       0
 node=  3007 local x,y,z forces =   -9.1640E+05    0.0000E+00    0.0000E+00  setid=       0
 node=  3015 local x,y,z forces =    9.1640E+05    0.0000E+00    0.0000E+00  setid=       0
 node=  3016 local x,y,z forces =   -1.1860E+06    0.0000E+00    0.0000E+00  setid=       0
 node=  3024 local x,y,z forces =    1.1860E+06    0.0000E+00    0.0000E+00  setid=       0
 node=  3025 local x,y,z forces =   -1.4281E+06    0.0000E+00    0.0000E+00  setid=       0
 node=  3033 local x,y,z forces =    1.4281E+06    0.0000E+00    0.0000E+00  setid=       0
 node=  3034 local x,y,z forces =   -7.6135E+05    0.0000E+00    0.0000E+00  setid=       0
 node=  3042 local x,y,z forces =    7.6135E+05    0.0000E+00    0.0000E+00  setid=       0
             force resultants   =   -1.2224E-08    9.1280E+02   -1.4284E+07
 output at time =   1.90000E-02
 node=    59 local x,y,z forces =   -1.1176E-08    8.9892E+02   -1.4286E+07  setid=       0
 node=    59 local x,y,z moments=    0.0000E+00    0.0000E+00    0.0000E+00  setid=       0
 node=  2926 local x,y,z forces =    6.6544E+05    0.0000E+00    0.0000E+00  setid=       0
 node=  2934 local x,y,z forces =   -6.6544E+05    0.0000E+00    0.0000E+00  setid=       0
 node=  2935 local x,y,z forces =    1.2355E+06    0.0000E+00    0.0000E+00  setid=       0
 node=  2943 local x,y,z forces =   -1.2355E+06    0.0000E+00    0.0000E+00  setid=       0
 node=  2944 local x,y,z forces =    9.8451E+05    0.0000E+00    0.0000E+00  setid=       0
 node=  2952 local x,y,z forces =   -9.8451E+05    0.0000E+00    0.0000E+00  setid=       0
 node=  2953 local x,y,z forces =    7.0387E+05    0.0000E+00    0.0000E+00  setid=       0
 node=  2961 local x,y,z forces =   -7.0387E+05    0.0000E+00    0.0000E+00  setid=       0
 node=  2962 local x,y,z forces =    4.1883E+05    0.0000E+00    0.0000E+00  setid=       0
 node=  2970 local x,y,z forces =   -4.1883E+05    0.0000E+00    0.0000E+00  setid=       0
 node=  2971 local x,y,z forces =    1.7491E+05    0.0000E+00    0.0000E+00  setid=       0
 node=  2979 local x,y,z forces =   -1.7491E+05    0.0000E+00    0.0000E+00  setid=       0
 node=  2980 local x,y,z forces =   -6.1282E+04    0.0000E+00    0.0000E+00  setid=       0
 node=  2988 local x,y,z forces =    6.1282E+04    0.0000E+00    0.0000E+00  setid=       0
 node=  2989 local x,y,z forces =   -3.6627E+05    0.0000E+00    0.0000E+00  setid=       0
 node=  2997 local x,y,z forces =    3.6627E+05    0.0000E+00    0.0000E+00  setid=       0
 node=  2998 local x,y,z forces =   -6.6390E+05    0.0000E+00    0.0000E+00  setid=       0
 node=  3006 local x,y,z forces =    6.6390E+05    0.0000E+00    0.0000E+00  setid=       0
 node=  3007 local x,y,z forces =   -9.2127E+05    0.0000E+00    0.0000E+00  setid=       0
 node=  3015 local x,y,z forces =    9.2127E+05    0.0000E+00    0.0000E+00  setid=       0
 node=  3016 local x,y,z forces =   -1.1925E+06    0.0000E+00    0.0000E+00  setid=       0
 node=  3024 local x,y,z forces =    1.1925E+06    0.0000E+00    0.0000E+00  setid=       0
 node=  3025 local x,y,z forces =   -1.4360E+06    0.0000E+00    0.0000E+00  setid=       0
 node=  3033 local x,y,z forces =    1.4360E+06    0.0000E+00    0.0000E+00  setid=       0
 node=  3034 local x,y,z forces =   -7.6566E+05    0.0000E+00    0.0000E+00  setid=       0
 node=  3042 local x,y,z forces =    7.6566E+05    0.0000E+00    0.0000E+00  setid=       0
             force resultants   =   -8.3819E-09    8.9892E+02   -1.4286E+07
 output at time =   1.92000E-02
 node=    59 local x,y,z forces =   -1.2806E-08    8.8541E+02   -1.4287E+07  setid=       0
 node=    59 local x,y,z moments=    0.0000E+00    0.0000E+00    0.0000E+00  setid=       0
 node=  2926 local x,y,z forces =    6.6967E+05    0.0000E+00    0.0000E+00  setid=       0
 node=  2934 local x,y,z forces =   -6.6967E+05    0.0000E+00    0.0000E+00  setid=       0
 node=  2935 local x,y,z forces =    1.2434E+06    0.0000E+00    0.0000E+00  setid=       0
 node=  2943 local x,y,z forces =   -1.2434E+06    0.0000E+00    0.0000E+00  setid=       0
 node=  2944 local x,y,z forces =    9.9103E+05    0.0000E+00    0.0000E+00  setid=       0
 node=  2952 local x,y,z forces =   -9.9103E+05    0.0000E+00    0.0000E+00  setid=       0
 node=  2953 local x,y,z forces =    7.0870E+05    0.0000E+00    0.0000E+00  setid=       0
 node=  2961 local x,y,z forces =   -7.0870E+05    0.0000E+00    0.0000E+00  setid=       0
 node=  2962 local x,y,z forces =    4.2203E+05    0.0000E+00    0.0000E+00  setid=       0
 node=  2970 local x,y,z forces =   -4.2203E+05    0.0000E+00    0.0000E+00  setid=       0
 node=  2971 local x,y,z forces =    1.7647E+05    0.0000E+00    0.0000E+00  setid=       0
 node=  2979 local x,y,z forces =   -1.7647E+05    0.0000E+00    0.0000E+00  setid=       0
 node=  2980 local x,y,z forces =   -6.1362E+04    0.0000E+00    0.0000E+00  setid=       0
 node=  2988 local x,y,z forces =    6.1362E+04    0.0000E+00    0.0000E+00  setid=       0
 node=  2989 local x,y,z forces =   -3.6794E+05    0.0000E+00    0.0000E+00  setid=       0
 node=  2997 local x,y,z forces =    3.6794E+05    0.0000E+00    0.0000E+00  setid=       0
 node=  2998 local x,y,z forces =   -6.6714E+05    0.0000E+00    0.0000E+00  setid=       0
 node=  3006 local x,y,z forces =    6.6714E+05    0.0000E+00    0.0000E+00  setid=       0
 node=  3007 local x,y,z forces =   -9.2610E+05    0.0000E+00    0.0000E+00  setid=       0
 node=  3015 local x,y,z forces =    9.2610E+05    0.0000E+00    0.0000E+00  setid=       0
 node=  3016 local x,y,z forces =   -1.1989E+06    0.0000E+00    0.0000E+00  setid=       0
 node=  3024 local x,y,z forces =    1.1989E+06    0.0000E+00    0.0000E+00  setid=       0
 node=  3025 local x,y,z forces =   -1.4440E+06    0.0000E+00    0.0000E+00  setid=       0
 node=  3033 local x,y,z forces =    1.4440E+06    0.0000E+00    0.0000E+00  setid=       0
 node=  3034 local x,y,z forces =   -7.6996E+05    0.0000E+00    0.0000E+00  setid=       0
 node=  3042 local x,y,z forces =    7.6996E+05    0.0000E+00    0.0000E+00  setid=       0
             force resultants   =   -2.4214E-08    8.8541E+02   -1.4287E+07
 output at time =   1.94000E-02
 node=    59 local x,y,z forces =    1.2573E-08    8.7224E+02   -1.4289E+07  setid=       0
 node=    59 local x,y,z moments=    0.0000E+00    0.0000E+00    0.0000E+00  setid=       0
 node=  2926 local x,y,z forces =    6.7388E+05    0.0000E+00    0.0000E+00  setid=       0
 node=  2934 local x,y,z forces =   -6.7388E+05    0.0000E+00    0.0000E+00  setid=       0
 node=  2935 local x,y,z forces =    1.2514E+06    0.0000E+00    0.0000E+00  setid=       0
 node=  2943 local x,y,z forces =   -1.2514E+06    0.0000E+00    0.0000E+00  setid=       0
 node=  2944 local x,y,z forces =    9.9752E+05    0.0000E+00    0.0000E+00  setid=       0
 node=  2952 local x,y,z forces =   -9.9752E+05    0.0000E+00    0.0000E+00  setid=       0
 node=  2953 local x,y,z forces =    7.1351E+05    0.0000E+00    0.0000E+00  setid=       0
 node=  2961 local x,y,z forces =   -7.1351E+05    0.0000E+00    0.0000E+00  setid=       0
 node=  2962 local x,y,z forces =    4.2521E+05    0.0000E+00    0.0000E+00  setid=       0
 node=  2970 local x,y,z forces =   -4.2521E+05    0.0000E+00    0.0000E+00  setid=       0
 node=  2971 local x,y,z forces =    1.7801E+05    0.0000E+00    0.0000E+00  setid=       0
 node=  2979 local x,y,z forces =   -1.7801E+05    0.0000E+00    0.0000E+00  setid=       0
 node=  2980 local x,y,z forces =   -6.1442E+04    0.0000E+00    0.0000E+00  setid=       0
 node=  2988 local x,y,z forces =    6.1442E+04    0.0000E+00    0.0000E+00  setid=       0
 node=  2989 local x,y,z forces =   -3.6960E+05    0.0000E+00    0.0000E+00  setid=       0
 node=  2997 local x,y,z forces =    3.6960E+05    0.0000E+00    0.0000E+00  setid=       0
 node=  2998 local x,y,z forces =   -6.7037E+05    0.0000E+00    0.0000E+00  setid=       0
 node=  3006 local x,y,z forces =    6.7037E+05    0.0000E+00    0.0000E+00  setid=       0
 node=  3007 local x,y,z forces =   -9.3091E+05    0.0000E+00    0.0000E+00  setid=       0
 node=  3015 local x,y,z forces =    9.3091E+05    0.0000E+00    0.0000E+00  setid=       0
 node=  3016 local x,y,z forces =   -1.2053E+06    0.0000E+00    0.0000E+00  setid=       0
 node=  3024 local x,y,z forces =    1.2053E+06    0.0000E+00    0.0000E+00  setid=       0
 node=  3025 local x,y,z forces =   -1.4518E+06    0.0000E+00    0.0000E+00  setid=       0
 node=  3033 local x,y,z forces =    1.4518E+06    0.0000E+00    0.0000E+00  setid=       0
 node=  3034 local x,y,z forces =   -7.7422E+05    0.0000E+00    0.0000E+00  setid=       0
 node=  3042 local x,y,z forces =    7.7422E+05    0.0000E+00    0.0000E+00  setid=       0
             force resultants   =    1.7229E-08    8.7224E+02   -1.4289E+07
 output at time =   1.96000E-02
 node=    59 local x,y,z forces =   -6.9849E-10    8.5942E+02   -1.4291E+07  setid=       0
 node=    59 local x,y,z moments=    0.0000E+00    0.0000E+00    0.0000E+00  setid=       0
 node=  2926 local x,y,z forces =    6.7806E+05    0.0000E+00    0.0000E+00  setid=       0
 node=  2934 local x,y,z forces =   -6.7806E+05    0.0000E+00    0.0000E+00  setid=       0
 node=  2935 local x,y,z forces =    1.2593E+06    0.0000E+00    0.0000E+00  setid=       0
 node=  2943 local x,y,z forces =   -1.2593E+06    0.0000E+00    0.0000E+00  setid=       0
 node=  2944 local x,y,z forces =    1.0040E+06    0.0000E+00    0.0000E+00  setid=       0
 node=  2952 local x,y,z forces =   -1.0040E+06    0.0000E+00    0.0000E+00  setid=       0
 node=  2953 local x,y,z forces =    7.1829E+05    0.0000E+00    0.0000E+00  setid=       0
 node=  2961 local x,y,z forces =   -7.1829E+05    0.0000E+00    0.0000E+00  setid=       0
 node=  2962 local x,y,z forces =    4.2837E+05    0.0000E+00    0.0000E+00  setid=       0
 node=  2970 local x,y,z forces =   -4.2837E+05    0.0000E+00    0.0000E+00  setid=       0
 node=  2971 local x,y,z forces =    1.7955E+05    0.0000E+00    0.0000E+00  setid=       0
 node=  2979 local x,y,z forces =   -1.7955E+05    0.0000E+00    0.0000E+00  setid=       0
 node=  2980 local x,y,z forces =   -6.1522E+04    0.0000E+00    0.0000E+00  setid=       0
 node=  2988 local x,y,z forces =    6.1522E+04    0.0000E+00    0.0000E+00  setid=       0
 node=  2989 local x,y,z forces =   -3.7125E+05    0.0000E+00    0.0000E+00  setid=       0
 node=  2997 local x,y,z forces =    3.7125E+05    0.0000E+00    0.0000E+00  setid=       0
 node=  2998 local x,y,z forces =   -6.7358E+05    0.0000E+00    0.0000E+00  setid=       0
 node=  3006 local x,y,z forces =    6.7358E+05    0.0000E+00    0.0000E+00  setid=       0
 node=  3007 local x,y,z forces =   -9.3570E+05    0.0000E+00    0.0000E+00  setid=       0
 node=  3015 local x,y,z forces =    9.3570E+05    0.0000E+00    0.0000E+00  setid=       0
 node=  3016 local x,y,z forces =   -1.2117E+06    0.0000E+00    0.0000E+00  setid=       0
 node=  3024 local x,y,z forces =    1.2117E+06    0.0000E+00    0.0000E+00  setid=       0
 node=  3025 local x,y,z forces =   -1.4596E+06    0.0000E+00    0.0000E+00  setid=       0
 node=  3033 local x,y,z forces =    1.4596E+06    0.0000E+00    0.0000E+00  setid=       0
 node=  3034 local x,y,z forces =   -7.7846E+05    0.0000E+00    0.0000E+00  setid=       0
 node=  3042 local x,y,z forces =    7.7846E+05    0.0000E+00    0.0000E+00  setid=       0
             force resultants   =    3.7253E-08    8.5942E+02   -1.4291E+07
 output at time =   1.98000E-02
 node=    59 local x,y,z forces =    3.9581E-09    8.4692E+02   -1.4292E+07  setid=       0
 node=    59 local x,y,z moments=    0.0000E+00    0.0000E+00    0.0000E+00  setid=       0
 node=  2926 local x,y,z forces =    6.8222E+05    0.0000E+00    0.0000E+00  setid=       0
 node=  2934 local x,y,z forces =   -6.8222E+05    0.0000E+00    0.0000E+00  setid=       0
 node=  2935 local x,y,z forces =    1.2672E+06    0.0000E+00    0.0000E+00  setid=       0
 node=  2943 local x,y,z forces =   -1.2672E+06    0.0000E+00    0.0000E+00  setid=       0
 node=  2944 local x,y,z forces =    1.0104E+06    0.0000E+00    0.0000E+00  setid=       0
 node=  2952 local x,y,z forces =   -1.0104E+06    0.0000E+00    0.0000E+00  setid=       0
 node=  2953 local x,y,z forces =    7.2305E+05    0.0000E+00    0.0000E+00  setid=       0
 node=  2961 local x,y,z forces =   -7.2305E+05    0.0000E+00    0.0000E+00  setid=       0
 node=  2962 local x,y,z forces =    4.3152E+05    0.0000E+00    0.0000E+00  setid=       0
 node=  2970 local x,y,z forces =   -4.3152E+05    0.0000E+00    0.0000E+00  setid=       0
 node=  2971 local x,y,z forces =    1.8108E+05    0.0000E+00    0.0000E+00  setid=       0
 node=  2979 local x,y,z forces =   -1.8108E+05    0.0000E+00    0.0000E+00  setid=       0
 node=  2980 local x,y,z forces =   -6.1602E+04    0.0000E+00    0.0000E+00  setid=       0
 node=  2988 local x,y,z forces =    6.1602E+04    0.0000E+00    0.0000E+00  setid=       0
 node=  2989 local x,y,z forces =   -3.7289E+05    0.0000E+00    0.0000E+00  setid=       0
 node=  2997 local x,y,z forces =    3.7289E+05    0.0000E+00    0.0000E+00  setid=       0
 node=  2998 local x,y,z forces =   -6.7677E+05    0.0000E+00    0.0000E+00  setid=       0
 node=  3006 local x,y,z forces =    6.7677E+05    0.0000E+00    0.0000E+00  setid=       0
 node=  3007 local x,y,z forces =   -9.4046E+05    0.0000E+00    0.0000E+00  setid=       0
 node=  3015 local x,y,z forces =    9.4046E+05    0.0000E+00    0.0000E+00  setid=       0
 node=  3016 local x,y,z forces =   -1.2180E+06    0.0000E+00    0.0000E+00  setid=       0
 node=  3024 local x,y,z forces =    1.2180E+06    0.0000E+00    0.0000E+00  setid=       0
 node=  3025 local x,y,z forces =   -1.4674E+06    0.0000E+00    0.0000E+00  setid=       0
 node=  3033 local x,y,z forces =    1.4674E+06    0.0000E+00    0.0000E+00  setid=       0
 node=  3034 local x,y,z forces =   -7.8268E+05    0.0000E+00    0.0000E+00  setid=       0
 node=  3042 local x,y,z forces =    7.8268E+05    0.0000E+00    0.0000E+00  setid=       0
             force resultants   =   -1.6298E-09    8.4692E+02   -1.4292E+07
 output at time =   2.00000E-02
 node=    59 local x,y,z forces =   -6.9849E-10    8.3474E+02   -1.4294E+07  setid=       0
 node=    59 local x,y,z moments=    0.0000E+00    0.0000E+00    0.0000E+00  setid=       0
 node=  2926 local x,y,z forces =    6.8636E+05    0.0000E+00    0.0000E+00  setid=       0
 node=  2934 local x,y,z forces =   -6.8636E+05    0.0000E+00    0.0000E+00  setid=       0
 node=  2935 local x,y,z forces =    1.2750E+06    0.0000E+00    0.0000E+00  setid=       0
 node=  2943 local x,y,z forces =   -1.2750E+06    0.0000E+00    0.0000E+00  setid=       0
 node=  2944 local x,y,z forces =    1.0168E+06    0.0000E+00    0.0000E+00  setid=       0
 node=  2952 local x,y,z forces =   -1.0168E+06    0.0000E+00    0.0000E+00  setid=       0
 node=  2953 local x,y,z forces =    7.2777E+05    0.0000E+00    0.0000E+00  setid=       0
 node=  2961 local x,y,z forces =   -7.2777E+05    0.0000E+00    0.0000E+00  setid=       0
 node=  2962 local x,y,z forces =    4.3465E+05    0.0000E+00    0.0000E+00  setid=       0
 node=  2970 local x,y,z forces =   -4.3465E+05    0.0000E+00    0.0000E+00  setid=       0
 node=  2971 local x,y,z forces =    1.8260E+05    0.0000E+00    0.0000E+00  setid=       0
 node=  2979 local x,y,z forces =   -1.8260E+05    0.0000E+00    0.0000E+00  setid=       0
 node=  2980 local x,y,z forces =   -6.1682E+04    0.0000E+00    0.0000E+00  setid=       0
 node=  2988 local x,y,z forces =    6.1682E+04    0.0000E+00    0.0000E+00  setid=       0
 node=  2989 local x,y,z forces =   -3.7452E+05    0.0000E+00    0.0000E+00  setid=       0
 node=  2997 local x,y,z forces =    3.7452E+05    0.0000E+00    0.0000E+00  setid=       0
 node=  2998 local x,y,z forces =   -6.7994E+05    0.0000E+00    0.0000E+00  setid=       0
 node=  3006 local x,y,z forces =    6.7994E+05    0.0000E+00    0.0000E+00  setid=       0
 node=  3007 local x,y,z forces =   -9.4519E+05    0.0000E+00    0.0000E+00  setid=       0
 node=  3015 local x,y,z forces =    9.4519E+05    0.0000E+00    0.0000E+00  setid=       0
 node=  3016 local x,y,z forces =   -1.2243E+06    0.0000E+00    0.0000E+00  setid=       0
 node=  3024 local x,y,z forces =    1.2243E+06    0.0000E+00    0.0000E+00  setid=       0
 node=  3025 local x,y,z forces =   -1.4752E+06    0.0000E+00    0.0000E+00  setid=       0
 node=  3033 local x,y,z forces =    1.4752E+06    0.0000E+00    0.0000E+00  setid=       0
 node=  3034 local x,y,z forces =   -7.8688E+05    0.0000E+00    0.0000E+00  setid=       0
 node=  3042 local x,y,z forces =    7.8688E+05    0.0000E+00    0.0000E+00  setid=       0
             force resultants   =   -2.9104E-09    8.3474E+02   -1.4294E+07
