 400x600                                                                 
                         ls-dyna smp.123264 d           date 01/12/2018

{BEGIN LEGEND}
 Entity #        Title
        0     bottom                                                                
        0     top                                                                   
        0     middle                                                                
{END LEGEND}

 single point constraint forces

 output at time =   0.00000E+00
 node=     1 local x,y,z forces =    0.0000E+00    0.0000E+00    0.0000E+00  setid=       0
 node=     2 local x,y,z forces =    0.0000E+00    0.0000E+00    0.0000E+00  setid=       0
 node=     3 local x,y,z forces =    0.0000E+00    0.0000E+00    0.0000E+00  setid=       0
 node=     4 local x,y,z forces =    0.0000E+00    0.0000E+00    0.0000E+00  setid=       0
 node=     5 local x,y,z forces =    0.0000E+00    0.0000E+00    0.0000E+00  setid=       0
 node=     6 local x,y,z forces =    0.0000E+00    0.0000E+00    0.0000E+00  setid=       0
 node=     7 local x,y,z forces =    0.0000E+00    0.0000E+00    0.0000E+00  setid=       0
 node=     8 local x,y,z forces =    0.0000E+00    0.0000E+00    0.0000E+00  setid=       0
 node=     9 local x,y,z forces =    0.0000E+00    0.0000E+00    0.0000E+00  setid=       0
 node=    10 local x,y,z forces =    0.0000E+00    0.0000E+00    0.0000E+00  setid=       0
 node=    11 local x,y,z forces =    0.0000E+00    0.0000E+00    0.0000E+00  setid=       0
 node=    12 local x,y,z forces =    0.0000E+00    0.0000E+00    0.0000E+00  setid=       0
 node=    13 local x,y,z forces =    0.0000E+00    0.0000E+00    0.0000E+00  setid=       0
 node=    14 local x,y,z forces =    0.0000E+00    0.0000E+00    0.0000E+00  setid=       0
 node=    15 local x,y,z forces =    0.0000E+00    0.0000E+00    0.0000E+00  setid=       0
 node=    16 local x,y,z forces =    0.0000E+00    0.0000E+00    0.0000E+00  setid=       0
 node=    17 local x,y,z forces =    0.0000E+00    0.0000E+00    0.0000E+00  setid=       0
 node=    18 local x,y,z forces =    0.0000E+00    0.0000E+00    0.0000E+00  setid=       0
 node=    19 local x,y,z forces =    0.0000E+00    0.0000E+00    0.0000E+00  setid=       0
 node=    20 local x,y,z forces =    0.0000E+00    0.0000E+00    0.0000E+00  setid=       0
 node=    21 local x,y,z forces =    0.0000E+00    0.0000E+00    0.0000E+00  setid=       0
 node=    22 local x,y,z forces =    0.0000E+00    0.0000E+00    0.0000E+00  setid=       0
 node=    23 local x,y,z forces =    0.0000E+00    0.0000E+00    0.0000E+00  setid=       0
 node=    24 local x,y,z forces =    0.0000E+00    0.0000E+00    0.0000E+00  setid=       0
 node=    25 local x,y,z forces =    0.0000E+00    0.0000E+00    0.0000E+00  setid=       0
 node=    26 local x,y,z forces =    0.0000E+00    0.0000E+00    0.0000E+00  setid=       0
 node=    27 local x,y,z forces =    0.0000E+00    0.0000E+00    0.0000E+00  setid=       0
 node=    28 local x,y,z forces =    0.0000E+00    0.0000E+00    0.0000E+00  setid=       0
 node=    29 local x,y,z forces =    0.0000E+00    0.0000E+00    0.0000E+00  setid=       0
 node=    30 local x,y,z forces =    0.0000E+00    0.0000E+00    0.0000E+00  setid=       0
 node=    31 local x,y,z forces =    0.0000E+00    0.0000E+00    0.0000E+00  setid=       0
 node=    32 local x,y,z forces =    0.0000E+00    0.0000E+00    0.0000E+00  setid=       0
 node=    33 local x,y,z forces =    0.0000E+00    0.0000E+00    0.0000E+00  setid=       0
 node=    34 local x,y,z forces =    0.0000E+00    0.0000E+00    0.0000E+00  setid=       0
 node=    35 local x,y,z forces =    0.0000E+00    0.0000E+00    0.0000E+00  setid=       0
 node=    36 local x,y,z forces =    0.0000E+00    0.0000E+00    0.0000E+00  setid=       0
 node=    37 local x,y,z forces =    0.0000E+00    0.0000E+00    0.0000E+00  setid=       0
 node=    38 local x,y,z forces =    0.0000E+00    0.0000E+00    0.0000E+00  setid=       0
 node=    39 local x,y,z forces =    0.0000E+00    0.0000E+00    0.0000E+00  setid=       0
 node=    40 local x,y,z forces =    0.0000E+00    0.0000E+00    0.0000E+00  setid=       0
 node=    41 local x,y,z forces =    0.0000E+00    0.0000E+00    0.0000E+00  setid=       0
 node=    42 local x,y,z forces =    0.0000E+00    0.0000E+00    0.0000E+00  setid=       0
 node=    43 local x,y,z forces =    0.0000E+00    0.0000E+00    0.0000E+00  setid=       0
 node=    44 local x,y,z forces =    0.0000E+00    0.0000E+00    0.0000E+00  setid=       0
 node=    45 local x,y,z forces =    0.0000E+00    0.0000E+00    0.0000E+00  setid=       0
 node=    46 local x,y,z forces =    0.0000E+00    0.0000E+00    0.0000E+00  setid=       0
 node=    47 local x,y,z forces =    0.0000E+00    0.0000E+00    0.0000E+00  setid=       0
 node=    48 local x,y,z forces =    0.0000E+00    0.0000E+00    0.0000E+00  setid=       0
 node=    49 local x,y,z forces =    0.0000E+00    0.0000E+00    0.0000E+00  setid=       0
 node=    50 local x,y,z forces =    0.0000E+00    0.0000E+00    0.0000E+00  setid=       0
 node=    51 local x,y,z forces =    0.0000E+00    0.0000E+00    0.0000E+00  setid=       0
 node=    52 local x,y,z forces =    0.0000E+00    0.0000E+00    0.0000E+00  setid=       0
 node=    53 local x,y,z forces =    0.0000E+00    0.0000E+00    0.0000E+00  setid=       0
 node=    54 local x,y,z forces =    0.0000E+00    0.0000E+00    0.0000E+00  setid=       0
 node=    55 local x,y,z forces =    0.0000E+00    0.0000E+00    0.0000E+00  setid=       0
 node=    56 local x,y,z forces =    0.0000E+00    0.0000E+00    0.0000E+00  setid=       0
 node=    57 local x,y,z forces =    0.0000E+00    0.0000E+00    0.0000E+00  setid=       0
 node=    58 local x,y,z forces =    0.0000E+00    0.0000E+00    0.0000E+00  setid=       0
 node=    59 local x,y,z forces =    0.0000E+00    0.0000E+00    0.0000E+00  setid=       0
 node=    60 local x,y,z forces =    0.0000E+00    0.0000E+00    0.0000E+00  setid=       0
 node=    61 local x,y,z forces =    0.0000E+00    0.0000E+00    0.0000E+00  setid=       0
 node=    62 local x,y,z forces =    0.0000E+00    0.0000E+00    0.0000E+00  setid=       0
 node=    63 local x,y,z forces =    0.0000E+00    0.0000E+00    0.0000E+00  setid=       0
 node=    64 local x,y,z forces =    0.0000E+00    0.0000E+00    0.0000E+00  setid=       0
 node=    65 local x,y,z forces =    0.0000E+00    0.0000E+00    0.0000E+00  setid=       0
 node=    66 local x,y,z forces =    0.0000E+00    0.0000E+00    0.0000E+00  setid=       0
 node=    67 local x,y,z forces =    0.0000E+00    0.0000E+00    0.0000E+00  setid=       0
 node=    68 local x,y,z forces =    0.0000E+00    0.0000E+00    0.0000E+00  setid=       0
 node=    69 local x,y,z forces =    0.0000E+00    0.0000E+00    0.0000E+00  setid=       0
 node=    70 local x,y,z forces =    0.0000E+00    0.0000E+00    0.0000E+00  setid=       0
 node=    71 local x,y,z forces =    0.0000E+00    0.0000E+00    0.0000E+00  setid=       0
 node=    72 local x,y,z forces =    0.0000E+00    0.0000E+00    0.0000E+00  setid=       0
 node=    73 local x,y,z forces =    0.0000E+00    0.0000E+00    0.0000E+00  setid=       0
 node=    74 local x,y,z forces =    0.0000E+00    0.0000E+00    0.0000E+00  setid=       0
 node=    75 local x,y,z forces =    0.0000E+00    0.0000E+00    0.0000E+00  setid=       0
 node=    76 local x,y,z forces =    0.0000E+00    0.0000E+00    0.0000E+00  setid=       0
 node=    77 local x,y,z forces =    0.0000E+00    0.0000E+00    0.0000E+00  setid=       0
 node=    78 local x,y,z forces =    0.0000E+00    0.0000E+00    0.0000E+00  setid=       0
 node=    79 local x,y,z forces =    0.0000E+00    0.0000E+00    0.0000E+00  setid=       0
 node=    80 local x,y,z forces =    0.0000E+00    0.0000E+00    0.0000E+00  setid=       0
 node=    81 local x,y,z forces =    0.0000E+00    0.0000E+00    0.0000E+00  setid=       0
 node=    82 local x,y,z forces =    0.0000E+00    0.0000E+00    0.0000E+00  setid=       0
 node=    83 local x,y,z forces =    0.0000E+00    0.0000E+00    0.0000E+00  setid=       0
 node=    84 local x,y,z forces =    0.0000E+00    0.0000E+00    0.0000E+00  setid=       0
 node=    85 local x,y,z forces =    0.0000E+00    0.0000E+00    0.0000E+00  setid=       0
 node=    86 local x,y,z forces =    0.0000E+00    0.0000E+00    0.0000E+00  setid=       0
 node=    87 local x,y,z forces =    0.0000E+00    0.0000E+00    0.0000E+00  setid=       0
 node=    88 local x,y,z forces =    0.0000E+00    0.0000E+00    0.0000E+00  setid=       0
 node=    89 local x,y,z forces =    0.0000E+00    0.0000E+00    0.0000E+00  setid=       0
 node=    90 local x,y,z forces =    0.0000E+00    0.0000E+00    0.0000E+00  setid=       0
 node=    91 local x,y,z forces =    0.0000E+00    0.0000E+00    0.0000E+00  setid=       0
 node=    92 local x,y,z forces =    0.0000E+00    0.0000E+00    0.0000E+00  setid=       0
 node=    93 local x,y,z forces =    0.0000E+00    0.0000E+00    0.0000E+00  setid=       0
 node=    94 local x,y,z forces =    0.0000E+00    0.0000E+00    0.0000E+00  setid=       0
 node=    95 local x,y,z forces =    0.0000E+00    0.0000E+00    0.0000E+00  setid=       0
 node=    96 local x,y,z forces =    0.0000E+00    0.0000E+00    0.0000E+00  setid=       0
 node=    97 local x,y,z forces =    0.0000E+00    0.0000E+00    0.0000E+00  setid=       0
 node=    98 local x,y,z forces =    0.0000E+00    0.0000E+00    0.0000E+00  setid=       0
 node=    99 local x,y,z forces =    0.0000E+00    0.0000E+00    0.0000E+00  setid=       0
 node=   100 local x,y,z forces =    0.0000E+00    0.0000E+00    0.0000E+00  setid=       0
 node=   101 local x,y,z forces =    0.0000E+00    0.0000E+00    0.0000E+00  setid=       0
 node=   102 local x,y,z forces =    0.0000E+00    0.0000E+00    0.0000E+00  setid=       0
 node=   103 local x,y,z forces =    0.0000E+00    0.0000E+00    0.0000E+00  setid=       0
 node=   104 local x,y,z forces =    0.0000E+00    0.0000E+00    0.0000E+00  setid=       0
 node=   105 local x,y,z forces =    0.0000E+00    0.0000E+00    0.0000E+00  setid=       0
 node=   106 local x,y,z forces =    0.0000E+00    0.0000E+00    0.0000E+00  setid=       0
 node=   107 local x,y,z forces =    0.0000E+00    0.0000E+00    0.0000E+00  setid=       0
 node=   108 local x,y,z forces =    0.0000E+00    0.0000E+00    0.0000E+00  setid=       0
 node=   109 local x,y,z forces =    0.0000E+00    0.0000E+00    0.0000E+00  setid=       0
 node=   110 local x,y,z forces =    0.0000E+00    0.0000E+00    0.0000E+00  setid=       0
 node=   111 local x,y,z forces =    0.0000E+00    0.0000E+00    0.0000E+00  setid=       0
 node=   112 local x,y,z forces =    0.0000E+00    0.0000E+00    0.0000E+00  setid=       0
 node=   113 local x,y,z forces =    0.0000E+00    0.0000E+00    0.0000E+00  setid=       0
 node=   114 local x,y,z forces =    0.0000E+00    0.0000E+00    0.0000E+00  setid=       0
 node=   115 local x,y,z forces =    0.0000E+00    0.0000E+00    0.0000E+00  setid=       0
 node=   116 local x,y,z forces =    0.0000E+00    0.0000E+00    0.0000E+00  setid=       0
 node=   117 local x,y,z forces =    0.0000E+00    0.0000E+00    0.0000E+00  setid=       0
 node=   118 local x,y,z forces =    0.0000E+00    0.0000E+00    0.0000E+00  setid=       0
 node=   119 local x,y,z forces =    0.0000E+00    0.0000E+00    0.0000E+00  setid=       0
 node=   120 local x,y,z forces =    0.0000E+00    0.0000E+00    0.0000E+00  setid=       0
 node=   121 local x,y,z forces =    0.0000E+00    0.0000E+00    0.0000E+00  setid=       0
 node=   122 local x,y,z forces =    0.0000E+00    0.0000E+00    0.0000E+00  setid=       0
 node=   123 local x,y,z forces =    0.0000E+00    0.0000E+00    0.0000E+00  setid=       0
 node=   124 local x,y,z forces =    0.0000E+00    0.0000E+00    0.0000E+00  setid=       0
 node=   125 local x,y,z forces =    0.0000E+00    0.0000E+00    0.0000E+00  setid=       0
 node=  6253 local x,y,z forces =    0.0000E+00    0.0000E+00    0.0000E+00  setid=       0
 node=  6258 local x,y,z forces =    0.0000E+00    0.0000E+00    0.0000E+00  setid=       0
 node=  6263 local x,y,z forces =    0.0000E+00    0.0000E+00    0.0000E+00  setid=       0
 node=  6268 local x,y,z forces =    0.0000E+00    0.0000E+00    0.0000E+00  setid=       0
 node=  6273 local x,y,z forces =    0.0000E+00    0.0000E+00    0.0000E+00  setid=       0
 node=  6278 local x,y,z forces =    0.0000E+00    0.0000E+00    0.0000E+00  setid=       0
 node=  6283 local x,y,z forces =    0.0000E+00    0.0000E+00    0.0000E+00  setid=       0
 node=  6288 local x,y,z forces =    0.0000E+00    0.0000E+00    0.0000E+00  setid=       0
 node=  6293 local x,y,z forces =    0.0000E+00    0.0000E+00    0.0000E+00  setid=       0
 node=  6298 local x,y,z forces =    0.0000E+00    0.0000E+00    0.0000E+00  setid=       0
 node=  6303 local x,y,z forces =    0.0000E+00    0.0000E+00    0.0000E+00  setid=       0
 node=  6308 local x,y,z forces =    0.0000E+00    0.0000E+00    0.0000E+00  setid=       0
 node=  6313 local x,y,z forces =    0.0000E+00    0.0000E+00    0.0000E+00  setid=       0
 node=  6318 local x,y,z forces =    0.0000E+00    0.0000E+00    0.0000E+00  setid=       0
 node=  6323 local x,y,z forces =    0.0000E+00    0.0000E+00    0.0000E+00  setid=       0
 node=  6328 local x,y,z forces =    0.0000E+00    0.0000E+00    0.0000E+00  setid=       0
 node=  6333 local x,y,z forces =    0.0000E+00    0.0000E+00    0.0000E+00  setid=       0
 node=  6338 local x,y,z forces =    0.0000E+00    0.0000E+00    0.0000E+00  setid=       0
 node=  6343 local x,y,z forces =    0.0000E+00    0.0000E+00    0.0000E+00  setid=       0
 node=  6348 local x,y,z forces =    0.0000E+00    0.0000E+00    0.0000E+00  setid=       0
 node=  6353 local x,y,z forces =    0.0000E+00    0.0000E+00    0.0000E+00  setid=       0
 node=  6358 local x,y,z forces =    0.0000E+00    0.0000E+00    0.0000E+00  setid=       0
 node=  6363 local x,y,z forces =    0.0000E+00    0.0000E+00    0.0000E+00  setid=       0
 node=  6368 local x,y,z forces =    0.0000E+00    0.0000E+00    0.0000E+00  setid=       0
 node=  6373 local x,y,z forces =    0.0000E+00    0.0000E+00    0.0000E+00  setid=       0
             force resultants   =    0.0000E+00    0.0000E+00    0.0000E+00
 output at time =   5.00000E-04
 node=     1 local x,y,z forces =   -8.1998E+03   -9.7503E+03   -2.6932E+04  setid=       0
 node=     2 local x,y,z forces =   -3.1821E+03   -1.9086E+04   -4.7853E+04  setid=       0
 node=     3 local x,y,z forces =   -2.2612E+01   -1.8785E+04   -4.5509E+04  setid=       0
 node=     4 local x,y,z forces =    3.1488E+03   -1.9125E+04   -4.7946E+04  setid=       0
 node=     5 local x,y,z forces =    8.2088E+03   -9.7800E+03   -2.7001E+04  setid=       0
 node=     6 local x,y,z forces =   -1.4535E+04   -6.2142E+03   -4.1889E+04  setid=       0
 node=     7 local x,y,z forces =   -6.1534E+03   -1.2585E+04   -7.1707E+04  setid=       0
 node=     8 local x,y,z forces =   -3.3943E+01   -1.2744E+04   -6.6708E+04  setid=       0
 node=     9 local x,y,z forces =    6.1041E+03   -1.2615E+04   -7.1854E+04  setid=       0
 node=    10 local x,y,z forces =    1.4557E+04   -6.2388E+03   -4.2004E+04  setid=       0
 node=    11 local x,y,z forces =   -1.2886E+04   -6.3124E+03   -3.5575E+04  setid=       0
 node=    12 local x,y,z forces =   -5.9196E+03   -1.2664E+04   -5.9366E+04  setid=       0
 node=    13 local x,y,z forces =   -2.0854E+01   -1.2706E+04   -5.4303E+04  setid=       0
 node=    14 local x,y,z forces =    5.8893E+03   -1.2696E+04   -5.9509E+04  setid=       0
 node=    15 local x,y,z forces =    1.2919E+04   -6.3370E+03   -3.5695E+04  setid=       0
 node=    16 local x,y,z forces =   -1.2595E+04   -4.6580E+03   -3.5190E+04  setid=       0
 node=    17 local x,y,z forces =   -5.7710E+03   -9.3089E+03   -5.8736E+04  setid=       0
 node=    18 local x,y,z forces =   -1.6127E+01   -9.3023E+03   -5.3660E+04  setid=       0
 node=    19 local x,y,z forces =    5.7471E+03   -9.3312E+03   -5.8897E+04  setid=       0
 node=    20 local x,y,z forces =    1.2635E+04   -4.6751E+03   -3.5330E+04  setid=       0
 node=    21 local x,y,z forces =   -1.2309E+04   -4.1473E+03   -3.4146E+04  setid=       0
 node=    22 local x,y,z forces =   -5.6560E+03   -8.3109E+03   -5.6696E+04  setid=       0
 node=    23 local x,y,z forces =   -1.3944E+01   -8.3262E+03   -5.1574E+04  setid=       0
 node=    24 local x,y,z forces =    5.6352E+03   -8.3288E+03   -5.6869E+04  setid=       0
 node=    25 local x,y,z forces =    1.2354E+04   -4.1610E+03   -3.4297E+04  setid=       0
 node=    26 local x,y,z forces =   -1.2194E+04   -3.3355E+03   -3.3973E+04  setid=       0
 node=    27 local x,y,z forces =   -5.5862E+03   -6.6791E+03   -5.6414E+04  setid=       0
 node=    28 local x,y,z forces =   -1.3158E+01   -6.6883E+03   -5.1298E+04  setid=       0
 node=    29 local x,y,z forces =    5.5665E+03   -6.6921E+03   -5.6597E+04  setid=       0
 node=    30 local x,y,z forces =    1.2243E+04   -3.3454E+03   -3.4134E+04  setid=       0
 node=    31 local x,y,z forces =   -1.2100E+04   -2.8301E+03   -3.3645E+04  setid=       0
 node=    32 local x,y,z forces =   -5.5442E+03   -5.6687E+03   -5.5790E+04  setid=       0
 node=    33 local x,y,z forces =   -1.2957E+01   -5.6785E+03   -5.0672E+04  setid=       0
 node=    34 local x,y,z forces =    5.5248E+03   -5.6786E+03   -5.5980E+04  setid=       0
 node=    35 local x,y,z forces =    1.2151E+04   -2.8376E+03   -3.3813E+04  setid=       0
 node=    36 local x,y,z forces =   -1.2054E+04   -2.2557E+03   -3.3564E+04  setid=       0
 node=    37 local x,y,z forces =   -5.5201E+03   -4.5150E+03   -5.5655E+04  setid=       0
 node=    38 local x,y,z forces =   -1.3073E+01   -4.5195E+03   -5.0542E+04  setid=       0
 node=    39 local x,y,z forces =    5.5005E+03   -4.5221E+03   -5.5851E+04  setid=       0
 node=    40 local x,y,z forces =    1.2107E+04   -2.2610E+03   -3.3737E+04  setid=       0
 node=    41 local x,y,z forces =   -1.2018E+04   -1.7888E+03   -3.3442E+04  setid=       0
 node=    42 local x,y,z forces =   -5.5049E+03   -3.5802E+03   -5.5422E+04  setid=       0
 node=    43 local x,y,z forces =   -1.3289E+01   -3.5838E+03   -5.0308E+04  setid=       0
 node=    44 local x,y,z forces =    5.4850E+03   -3.5854E+03   -5.5622E+04  setid=       0
 node=    45 local x,y,z forces =    1.2073E+04   -1.7927E+03   -3.3619E+04  setid=       0
 node=    46 local x,y,z forces =   -1.1999E+04   -1.3082E+03   -3.3407E+04  setid=       0
 node=    47 local x,y,z forces =   -5.4957E+03   -2.6174E+03   -5.5361E+04  setid=       0
 node=    48 local x,y,z forces =   -1.3526E+01   -2.6189E+03   -5.0248E+04  setid=       0
 node=    49 local x,y,z forces =    5.4755E+03   -2.6209E+03   -5.5563E+04  setid=       0
 node=    50 local x,y,z forces =    1.2055E+04   -1.3109E+03   -3.3586E+04  setid=       0
 node=    51 local x,y,z forces =   -1.1986E+04   -8.6925E+02   -3.3359E+04  setid=       0
 node=    52 local x,y,z forces =   -5.4901E+03   -1.7391E+03   -5.5269E+04  setid=       0
 node=    53 local x,y,z forces =   -1.3719E+01   -1.7402E+03   -5.0156E+04  setid=       0
 node=    54 local x,y,z forces =    5.4695E+03   -1.7413E+03   -5.5474E+04  setid=       0
 node=    55 local x,y,z forces =    1.2041E+04   -8.7092E+02   -3.3540E+04  setid=       0
 node=    56 local x,y,z forces =   -1.1980E+04   -4.2900E+02   -3.3350E+04  setid=       0
 node=    57 local x,y,z forces =   -5.4871E+03   -8.5815E+02   -5.5254E+04  setid=       0
 node=    58 local x,y,z forces =   -1.3846E+01   -8.5850E+02   -5.0141E+04  setid=       0
 node=    59 local x,y,z forces =    5.4664E+03   -8.5920E+02   -5.5460E+04  setid=       0
 node=    60 local x,y,z forces =    1.2036E+04   -4.2980E+02   -3.3532E+04  setid=       0
 node=    61 local x,y,z forces =   -1.1977E+04    3.6380E-12   -3.3337E+04  setid=       0
 node=    62 local x,y,z forces =   -5.4861E+03   -1.8190E-12   -5.5227E+04  setid=       0
 node=    63 local x,y,z forces =   -1.3888E+01   -3.6380E-12   -5.0114E+04  setid=       0
 node=    64 local x,y,z forces =    5.4654E+03   -5.4570E-12   -5.5434E+04  setid=       0
 node=    65 local x,y,z forces =    1.2033E+04   -1.0914E-11   -3.3519E+04  setid=       0
 node=    66 local x,y,z forces =   -1.1980E+04    4.2900E+02   -3.3350E+04  setid=       0
 node=    67 local x,y,z forces =   -5.4871E+03    8.5815E+02   -5.5254E+04  setid=       0
 node=    68 local x,y,z forces =   -1.3846E+01    8.5850E+02   -5.0141E+04  setid=       0
 node=    69 local x,y,z forces =    5.4664E+03    8.5920E+02   -5.5460E+04  setid=       0
 node=    70 local x,y,z forces =    1.2036E+04    4.2980E+02   -3.3532E+04  setid=       0
 node=    71 local x,y,z forces =   -1.1986E+04    8.6925E+02   -3.3359E+04  setid=       0
 node=    72 local x,y,z forces =   -5.4901E+03    1.7391E+03   -5.5269E+04  setid=       0
 node=    73 local x,y,z forces =   -1.3719E+01    1.7402E+03   -5.0156E+04  setid=       0
 node=    74 local x,y,z forces =    5.4695E+03    1.7413E+03   -5.5474E+04  setid=       0
 node=    75 local x,y,z forces =    1.2041E+04    8.7092E+02   -3.3540E+04  setid=       0
 node=    76 local x,y,z forces =   -1.1999E+04    1.3082E+03   -3.3407E+04  setid=       0
 node=    77 local x,y,z forces =   -5.4957E+03    2.6174E+03   -5.5361E+04  setid=       0
 node=    78 local x,y,z forces =   -1.3526E+01    2.6189E+03   -5.0248E+04  setid=       0
 node=    79 local x,y,z forces =    5.4755E+03    2.6209E+03   -5.5563E+04  setid=       0
 node=    80 local x,y,z forces =    1.2055E+04    1.3109E+03   -3.3586E+04  setid=       0
 node=    81 local x,y,z forces =   -1.2018E+04    1.7888E+03   -3.3442E+04  setid=       0
 node=    82 local x,y,z forces =   -5.5049E+03    3.5802E+03   -5.5422E+04  setid=       0
 node=    83 local x,y,z forces =   -1.3289E+01    3.5838E+03   -5.0308E+04  setid=       0
 node=    84 local x,y,z forces =    5.4850E+03    3.5854E+03   -5.5622E+04  setid=       0
 node=    85 local x,y,z forces =    1.2073E+04    1.7927E+03   -3.3619E+04  setid=       0
 node=    86 local x,y,z forces =   -1.2054E+04    2.2557E+03   -3.3564E+04  setid=       0
 node=    87 local x,y,z forces =   -5.5201E+03    4.5150E+03   -5.5655E+04  setid=       0
 node=    88 local x,y,z forces =   -1.3073E+01    4.5195E+03   -5.0542E+04  setid=       0
 node=    89 local x,y,z forces =    5.5005E+03    4.5221E+03   -5.5851E+04  setid=       0
 node=    90 local x,y,z forces =    1.2107E+04    2.2610E+03   -3.3737E+04  setid=       0
 node=    91 local x,y,z forces =   -1.2100E+04    2.8301E+03   -3.3645E+04  setid=       0
 node=    92 local x,y,z forces =   -5.5442E+03    5.6687E+03   -5.5790E+04  setid=       0
 node=    93 local x,y,z forces =   -1.2957E+01    5.6785E+03   -5.0672E+04  setid=       0
 node=    94 local x,y,z forces =    5.5248E+03    5.6786E+03   -5.5980E+04  setid=       0
 node=    95 local x,y,z forces =    1.2151E+04    2.8376E+03   -3.3813E+04  setid=       0
 node=    96 local x,y,z forces =   -1.2194E+04    3.3355E+03   -3.3973E+04  setid=       0
 node=    97 local x,y,z forces =   -5.5862E+03    6.6791E+03   -5.6414E+04  setid=       0
 node=    98 local x,y,z forces =   -1.3158E+01    6.6883E+03   -5.1298E+04  setid=       0
 node=    99 local x,y,z forces =    5.5665E+03    6.6921E+03   -5.6597E+04  setid=       0
 node=   100 local x,y,z forces =    1.2243E+04    3.3454E+03   -3.4134E+04  setid=       0
 node=   101 local x,y,z forces =   -1.2309E+04    4.1473E+03   -3.4146E+04  setid=       0
 node=   102 local x,y,z forces =   -5.6560E+03    8.3109E+03   -5.6696E+04  setid=       0
 node=   103 local x,y,z forces =   -1.3944E+01    8.3262E+03   -5.1574E+04  setid=       0
 node=   104 local x,y,z forces =    5.6352E+03    8.3288E+03   -5.6869E+04  setid=       0
 node=   105 local x,y,z forces =    1.2354E+04    4.1610E+03   -3.4297E+04  setid=       0
 node=   106 local x,y,z forces =   -1.2595E+04    4.6580E+03   -3.5190E+04  setid=       0
 node=   107 local x,y,z forces =   -5.7710E+03    9.3089E+03   -5.8736E+04  setid=       0
 node=   108 local x,y,z forces =   -1.6127E+01    9.3023E+03   -5.3660E+04  setid=       0
 node=   109 local x,y,z forces =    5.7471E+03    9.3312E+03   -5.8897E+04  setid=       0
 node=   110 local x,y,z forces =    1.2635E+04    4.6751E+03   -3.5330E+04  setid=       0
 node=   111 local x,y,z forces =   -1.2886E+04    6.3124E+03   -3.5575E+04  setid=       0
 node=   112 local x,y,z forces =   -5.9196E+03    1.2664E+04   -5.9366E+04  setid=       0
 node=   113 local x,y,z forces =   -2.0854E+01    1.2706E+04   -5.4303E+04  setid=       0
 node=   114 local x,y,z forces =    5.8893E+03    1.2696E+04   -5.9509E+04  setid=       0
 node=   115 local x,y,z forces =    1.2919E+04    6.3370E+03   -3.5695E+04  setid=       0
 node=   116 local x,y,z forces =   -1.4535E+04    6.2142E+03   -4.1889E+04  setid=       0
 node=   117 local x,y,z forces =   -6.1534E+03    1.2585E+04   -7.1707E+04  setid=       0
 node=   118 local x,y,z forces =   -3.3943E+01    1.2744E+04   -6.6708E+04  setid=       0
 node=   119 local x,y,z forces =    6.1041E+03    1.2615E+04   -7.1854E+04  setid=       0
 node=   120 local x,y,z forces =    1.4557E+04    6.2388E+03   -4.2004E+04  setid=       0
 node=   121 local x,y,z forces =   -8.1998E+03    9.7503E+03   -2.6932E+04  setid=       0
 node=   122 local x,y,z forces =   -3.1821E+03    1.9086E+04   -4.7853E+04  setid=       0
 node=   123 local x,y,z forces =   -2.2612E+01    1.8785E+04   -4.5509E+04  setid=       0
 node=   124 local x,y,z forces =    3.1488E+03    1.9125E+04   -4.7946E+04  setid=       0
 node=   125 local x,y,z forces =    8.2088E+03    9.7800E+03   -2.7001E+04  setid=       0
 node=  6253 local x,y,z forces =    7.6601E+00   -4.0133E+04    0.0000E+00  setid=       0
 node=  6258 local x,y,z forces =    1.0040E+01   -3.7221E+04    0.0000E+00  setid=       0
 node=  6263 local x,y,z forces =    4.5301E+00   -2.8189E+04    0.0000E+00  setid=       0
 node=  6268 local x,y,z forces =    1.1523E+00   -2.3222E+04    0.0000E+00  setid=       0
 node=  6273 local x,y,z forces =   -8.3020E-01   -2.1445E+04    0.0000E+00  setid=       0
 node=  6278 local x,y,z forces =   -1.7530E+00   -1.8451E+04    0.0000E+00  setid=       0
 node=  6283 local x,y,z forces =   -2.2996E+00   -1.5975E+04    0.0000E+00  setid=       0
 node=  6288 local x,y,z forces =   -2.5660E+00   -1.3130E+04    0.0000E+00  setid=       0
 node=  6293 local x,y,z forces =   -2.7306E+00   -1.0513E+04    0.0000E+00  setid=       0
 node=  6298 local x,y,z forces =   -2.8104E+00   -7.8242E+03    0.0000E+00  setid=       0
 node=  6303 local x,y,z forces =   -2.8599E+00   -5.2161E+03    0.0000E+00  setid=       0
 node=  6308 local x,y,z forces =   -2.8797E+00   -2.5980E+03    0.0000E+00  setid=       0
 node=  6313 local x,y,z forces =   -2.8884E+00    5.5661E-10    0.0000E+00  setid=       0
 node=  6318 local x,y,z forces =   -2.8797E+00    2.5980E+03    0.0000E+00  setid=       0
 node=  6323 local x,y,z forces =   -2.8599E+00    5.2161E+03    0.0000E+00  setid=       0
 node=  6328 local x,y,z forces =   -2.8104E+00    7.8242E+03    0.0000E+00  setid=       0
 node=  6333 local x,y,z forces =   -2.7306E+00    1.0513E+04    0.0000E+00  setid=       0
 node=  6338 local x,y,z forces =   -2.5660E+00    1.3130E+04    0.0000E+00  setid=       0
 node=  6343 local x,y,z forces =   -2.2996E+00    1.5975E+04    0.0000E+00  setid=       0
 node=  6348 local x,y,z forces =   -1.7530E+00    1.8451E+04    0.0000E+00  setid=       0
 node=  6353 local x,y,z forces =   -8.3020E-01    2.1445E+04    0.0000E+00  setid=       0
 node=  6358 local x,y,z forces =    1.1523E+00    2.3222E+04    0.0000E+00  setid=       0
 node=  6363 local x,y,z forces =    4.5301E+00    2.8189E+04    0.0000E+00  setid=       0
 node=  6368 local x,y,z forces =    1.0040E+01    3.7221E+04    0.0000E+00  setid=       0
 node=  6373 local x,y,z forces =    7.6601E+00    4.0133E+04    0.0000E+00  setid=       0
             force resultants   =    8.0645E+01   -1.0186E-09   -5.8537E+06
 output at time =   1.00000E-03
 node=     1 local x,y,z forces =   -1.6397E+04   -1.9481E+04   -5.3874E+04  setid=       0
 node=     2 local x,y,z forces =   -6.3840E+03   -3.8143E+04   -9.5733E+04  setid=       0
 node=     3 local x,y,z forces =   -7.2669E+01   -3.7563E+04   -9.1089E+04  setid=       0
 node=     4 local x,y,z forces =    6.2778E+03   -3.8267E+04   -9.6022E+04  setid=       0
 node=     5 local x,y,z forces =    1.6424E+04   -1.9574E+04   -5.4087E+04  setid=       0
 node=     6 local x,y,z forces =   -2.9059E+04   -1.2409E+04   -8.3779E+04  setid=       0
 node=     7 local x,y,z forces =   -1.2336E+04   -2.5142E+04   -1.4342E+05  setid=       0
 node=     8 local x,y,z forces =   -1.0912E+02   -2.5478E+04   -1.3349E+05  setid=       0
 node=     9 local x,y,z forces =    1.2179E+04   -2.5239E+04   -1.4388E+05  setid=       0
 node=    10 local x,y,z forces =    2.9127E+04   -1.2486E+04   -8.4132E+04  setid=       0
 node=    11 local x,y,z forces =   -2.5755E+04   -1.2611E+04   -7.1129E+04  setid=       0
 node=    12 local x,y,z forces =   -1.1857E+04   -2.5312E+04   -1.1871E+05  setid=       0
 node=    13 local x,y,z forces =   -6.6927E+01   -2.5415E+04   -1.0865E+05  setid=       0
 node=    14 local x,y,z forces =    1.1761E+04   -2.5413E+04   -1.1916E+05  setid=       0
 node=    15 local x,y,z forces =    2.5854E+04   -1.2690E+04   -7.1502E+04  setid=       0
 node=    16 local x,y,z forces =   -2.5166E+04   -9.3058E+03   -7.0347E+04  setid=       0
 node=    17 local x,y,z forces =   -1.1556E+04   -1.8604E+04   -1.1744E+05  setid=       0
 node=    18 local x,y,z forces =   -5.1500E+01   -1.8604E+04   -1.0736E+05  setid=       0
 node=    19 local x,y,z forces =    1.1480E+04   -1.8676E+04   -1.1794E+05  setid=       0
 node=    20 local x,y,z forces =    2.5292E+04   -9.3612E+03   -7.0781E+04  setid=       0
 node=    21 local x,y,z forces =   -2.4591E+04   -8.2872E+03   -6.8247E+04  setid=       0
 node=    22 local x,y,z forces =   -1.1323E+04   -1.6612E+04   -1.1335E+05  setid=       0
 node=    23 local x,y,z forces =   -4.4279E+01   -1.6654E+04   -1.0319E+05  setid=       0
 node=    24 local x,y,z forces =    1.1258E+04   -1.6671E+04   -1.1389E+05  setid=       0
 node=    25 local x,y,z forces =    2.4734E+04   -8.3318E+03   -6.8720E+04  setid=       0
 node=    26 local x,y,z forces =   -2.4357E+04   -6.6657E+03   -6.7893E+04  setid=       0
 node=    27 local x,y,z forces =   -1.1183E+04   -1.3351E+04   -1.1277E+05  setid=       0
 node=    28 local x,y,z forces =   -4.1611E+01   -1.3377E+04   -1.0263E+05  setid=       0
 node=    29 local x,y,z forces =    1.1121E+04   -1.3394E+04   -1.1335E+05  setid=       0
 node=    30 local x,y,z forces =    2.4513E+04   -6.6980E+03   -6.8399E+04  setid=       0
 node=    31 local x,y,z forces =   -2.4168E+04   -5.6565E+03   -6.7231E+04  setid=       0
 node=    32 local x,y,z forces =   -1.1099E+04   -1.1332E+04   -1.1152E+05  setid=       0
 node=    33 local x,y,z forces =   -4.0863E+01   -1.1358E+04   -1.0138E+05  setid=       0
 node=    34 local x,y,z forces =    1.1038E+04   -1.1365E+04   -1.1212E+05  setid=       0
 node=    35 local x,y,z forces =    2.4331E+04   -5.6811E+03   -6.7760E+04  setid=       0
 node=    36 local x,y,z forces =   -2.4075E+04   -4.5087E+03   -6.7066E+04  setid=       0
 node=    37 local x,y,z forces =   -1.1050E+04   -9.0263E+03   -1.1124E+05  setid=       0
 node=    38 local x,y,z forces =   -4.1171E+01   -9.0398E+03   -1.0112E+05  setid=       0
 node=    39 local x,y,z forces =    1.0989E+04   -9.0498E+03   -1.1186E+05  setid=       0
 node=    40 local x,y,z forces =    2.4244E+04   -4.5264E+03   -6.7613E+04  setid=       0
 node=    41 local x,y,z forces =   -2.4003E+04   -3.5759E+03   -6.6818E+04  setid=       0
 node=    42 local x,y,z forces =   -1.1020E+04   -7.1580E+03   -1.1077E+05  setid=       0
 node=    43 local x,y,z forces =   -4.1821E+01   -7.1685E+03   -1.0065E+05  setid=       0
 node=    44 local x,y,z forces =    1.0958E+04   -7.1752E+03   -1.1141E+05  setid=       0
 node=    45 local x,y,z forces =    2.4176E+04   -3.5888E+03   -6.7377E+04  setid=       0
 node=    46 local x,y,z forces =   -2.3964E+04   -2.6153E+03   -6.6747E+04  setid=       0
 node=    47 local x,y,z forces =   -1.1002E+04   -5.2331E+03   -1.1065E+05  setid=       0
 node=    48 local x,y,z forces =   -4.2557E+01   -5.2384E+03   -1.0053E+05  setid=       0
 node=    49 local x,y,z forces =    1.0939E+04   -5.2448E+03   -1.1129E+05  setid=       0
 node=    50 local x,y,z forces =    2.4140E+04   -2.6240E+03   -6.7314E+04  setid=       0
 node=    51 local x,y,z forces =   -2.3937E+04   -1.7378E+03   -6.6650E+04  setid=       0
 node=    52 local x,y,z forces =   -1.0991E+04   -3.4772E+03   -1.1047E+05  setid=       0
 node=    53 local x,y,z forces =   -4.3161E+01   -3.4808E+03   -1.0035E+05  setid=       0
 node=    54 local x,y,z forces =    1.0927E+04   -3.4846E+03   -1.1111E+05  setid=       0
 node=    55 local x,y,z forces =    2.4114E+04   -1.7433E+03   -6.7224E+04  setid=       0
 node=    56 local x,y,z forces =   -2.3924E+04   -8.5767E+02   -6.6632E+04  setid=       0
 node=    57 local x,y,z forces =   -1.0985E+04   -1.7158E+03   -1.1043E+05  setid=       0
 node=    58 local x,y,z forces =   -4.3562E+01   -1.7172E+03   -1.0031E+05  setid=       0
 node=    59 local x,y,z forces =    1.0920E+04   -1.7193E+03   -1.1109E+05  setid=       0
 node=    60 local x,y,z forces =    2.4103E+04   -8.6031E+02   -6.7208E+04  setid=       0
 node=    61 local x,y,z forces =   -2.3919E+04    2.5466E-11   -6.6605E+04  setid=       0
 node=    62 local x,y,z forces =   -1.0983E+04    4.3656E-11   -1.1038E+05  setid=       0
 node=    63 local x,y,z forces =   -4.3696E+01    1.8190E-11   -1.0026E+05  setid=       0
 node=    64 local x,y,z forces =    1.0918E+04    7.2760E-12   -1.1103E+05  setid=       0
 node=    65 local x,y,z forces =    2.4097E+04    3.6380E-12   -6.7182E+04  setid=       0
 node=    66 local x,y,z forces =   -2.3924E+04    8.5767E+02   -6.6632E+04  setid=       0
 node=    67 local x,y,z forces =   -1.0985E+04    1.7158E+03   -1.1043E+05  setid=       0
 node=    68 local x,y,z forces =   -4.3562E+01    1.7172E+03   -1.0031E+05  setid=       0
 node=    69 local x,y,z forces =    1.0920E+04    1.7193E+03   -1.1109E+05  setid=       0
 node=    70 local x,y,z forces =    2.4103E+04    8.6031E+02   -6.7208E+04  setid=       0
 node=    71 local x,y,z forces =   -2.3937E+04    1.7378E+03   -6.6650E+04  setid=       0
 node=    72 local x,y,z forces =   -1.0991E+04    3.4772E+03   -1.1047E+05  setid=       0
 node=    73 local x,y,z forces =   -4.3161E+01    3.4808E+03   -1.0035E+05  setid=       0
 node=    74 local x,y,z forces =    1.0927E+04    3.4846E+03   -1.1111E+05  setid=       0
 node=    75 local x,y,z forces =    2.4114E+04    1.7433E+03   -6.7224E+04  setid=       0
 node=    76 local x,y,z forces =   -2.3964E+04    2.6153E+03   -6.6747E+04  setid=       0
 node=    77 local x,y,z forces =   -1.1002E+04    5.2331E+03   -1.1065E+05  setid=       0
 node=    78 local x,y,z forces =   -4.2557E+01    5.2384E+03   -1.0053E+05  setid=       0
 node=    79 local x,y,z forces =    1.0939E+04    5.2448E+03   -1.1129E+05  setid=       0
 node=    80 local x,y,z forces =    2.4140E+04    2.6240E+03   -6.7314E+04  setid=       0
 node=    81 local x,y,z forces =   -2.4003E+04    3.5759E+03   -6.6818E+04  setid=       0
 node=    82 local x,y,z forces =   -1.1020E+04    7.1580E+03   -1.1077E+05  setid=       0
 node=    83 local x,y,z forces =   -4.1821E+01    7.1685E+03   -1.0065E+05  setid=       0
 node=    84 local x,y,z forces =    1.0958E+04    7.1752E+03   -1.1141E+05  setid=       0
 node=    85 local x,y,z forces =    2.4176E+04    3.5888E+03   -6.7377E+04  setid=       0
 node=    86 local x,y,z forces =   -2.4075E+04    4.5087E+03   -6.7066E+04  setid=       0
 node=    87 local x,y,z forces =   -1.1050E+04    9.0263E+03   -1.1124E+05  setid=       0
 node=    88 local x,y,z forces =   -4.1171E+01    9.0398E+03   -1.0112E+05  setid=       0
 node=    89 local x,y,z forces =    1.0989E+04    9.0498E+03   -1.1186E+05  setid=       0
 node=    90 local x,y,z forces =    2.4244E+04    4.5264E+03   -6.7613E+04  setid=       0
 node=    91 local x,y,z forces =   -2.4168E+04    5.6565E+03   -6.7231E+04  setid=       0
 node=    92 local x,y,z forces =   -1.1099E+04    1.1332E+04   -1.1152E+05  setid=       0
 node=    93 local x,y,z forces =   -4.0863E+01    1.1358E+04   -1.0138E+05  setid=       0
 node=    94 local x,y,z forces =    1.1038E+04    1.1365E+04   -1.1212E+05  setid=       0
 node=    95 local x,y,z forces =    2.4331E+04    5.6811E+03   -6.7760E+04  setid=       0
 node=    96 local x,y,z forces =   -2.4357E+04    6.6657E+03   -6.7893E+04  setid=       0
 node=    97 local x,y,z forces =   -1.1183E+04    1.3351E+04   -1.1277E+05  setid=       0
 node=    98 local x,y,z forces =   -4.1611E+01    1.3377E+04   -1.0263E+05  setid=       0
 node=    99 local x,y,z forces =    1.1121E+04    1.3394E+04   -1.1335E+05  setid=       0
 node=   100 local x,y,z forces =    2.4513E+04    6.6980E+03   -6.8399E+04  setid=       0
 node=   101 local x,y,z forces =   -2.4591E+04    8.2872E+03   -6.8247E+04  setid=       0
 node=   102 local x,y,z forces =   -1.1323E+04    1.6612E+04   -1.1335E+05  setid=       0
 node=   103 local x,y,z forces =   -4.4279E+01    1.6654E+04   -1.0319E+05  setid=       0
 node=   104 local x,y,z forces =    1.1258E+04    1.6671E+04   -1.1389E+05  setid=       0
 node=   105 local x,y,z forces =    2.4734E+04    8.3318E+03   -6.8720E+04  setid=       0
 node=   106 local x,y,z forces =   -2.5166E+04    9.3058E+03   -7.0347E+04  setid=       0
 node=   107 local x,y,z forces =   -1.1556E+04    1.8604E+04   -1.1744E+05  setid=       0
 node=   108 local x,y,z forces =   -5.1500E+01    1.8604E+04   -1.0736E+05  setid=       0
 node=   109 local x,y,z forces =    1.1480E+04    1.8676E+04   -1.1794E+05  setid=       0
 node=   110 local x,y,z forces =    2.5292E+04    9.3612E+03   -7.0781E+04  setid=       0
 node=   111 local x,y,z forces =   -2.5755E+04    1.2611E+04   -7.1129E+04  setid=       0
 node=   112 local x,y,z forces =   -1.1857E+04    2.5312E+04   -1.1871E+05  setid=       0
 node=   113 local x,y,z forces =   -6.6927E+01    2.5415E+04   -1.0865E+05  setid=       0
 node=   114 local x,y,z forces =    1.1761E+04    2.5413E+04   -1.1916E+05  setid=       0
 node=   115 local x,y,z forces =    2.5854E+04    1.2690E+04   -7.1502E+04  setid=       0
 node=   116 local x,y,z forces =   -2.9059E+04    1.2409E+04   -8.3779E+04  setid=       0
 node=   117 local x,y,z forces =   -1.2336E+04    2.5142E+04   -1.4342E+05  setid=       0
 node=   118 local x,y,z forces =   -1.0912E+02    2.5478E+04   -1.3349E+05  setid=       0
 node=   119 local x,y,z forces =    1.2179E+04    2.5239E+04   -1.4388E+05  setid=       0
 node=   120 local x,y,z forces =    2.9127E+04    1.2486E+04   -8.4132E+04  setid=       0
 node=   121 local x,y,z forces =   -1.6397E+04    1.9481E+04   -5.3874E+04  setid=       0
 node=   122 local x,y,z forces =   -6.3840E+03    3.8143E+04   -9.5733E+04  setid=       0
 node=   123 local x,y,z forces =   -7.2669E+01    3.7563E+04   -9.1089E+04  setid=       0
 node=   124 local x,y,z forces =    6.2778E+03    3.8267E+04   -9.6022E+04  setid=       0
 node=   125 local x,y,z forces =    1.6424E+04    1.9574E+04   -5.4087E+04  setid=       0
 node=  6253 local x,y,z forces =    2.6499E+01   -8.0225E+04    0.0000E+00  setid=       0
 node=  6258 local x,y,z forces =    3.2673E+01   -7.4368E+04    0.0000E+00  setid=       0
 node=  6263 local x,y,z forces =    1.2024E+01   -5.6333E+04    0.0000E+00  setid=       0
 node=  6268 local x,y,z forces =   -6.0481E-01   -4.6417E+04    0.0000E+00  setid=       0
 node=  6273 local x,y,z forces =   -7.9484E+00   -4.2876E+04    0.0000E+00  setid=       0
 node=  6278 local x,y,z forces =   -1.1333E+01   -3.6892E+04    0.0000E+00  setid=       0
 node=  6283 local x,y,z forces =   -1.3349E+01   -3.1943E+04    0.0000E+00  setid=       0
 node=  6288 local x,y,z forces =   -1.4309E+01   -2.6256E+04    0.0000E+00  setid=       0
 node=  6293 local x,y,z forces =   -1.4899E+01   -2.1024E+04    0.0000E+00  setid=       0
 node=  6298 local x,y,z forces =   -1.5173E+01   -1.5647E+04    0.0000E+00  setid=       0
 node=  6303 local x,y,z forces =   -1.5343E+01   -1.0431E+04    0.0000E+00  setid=       0
 node=  6308 local x,y,z forces =   -1.5406E+01   -5.1956E+03    0.0000E+00  setid=       0
 node=  6313 local x,y,z forces =   -1.5437E+01    2.8376E-10    0.0000E+00  setid=       0
 node=  6318 local x,y,z forces =   -1.5406E+01    5.1956E+03    0.0000E+00  setid=       0
 node=  6323 local x,y,z forces =   -1.5343E+01    1.0431E+04    0.0000E+00  setid=       0
 node=  6328 local x,y,z forces =   -1.5173E+01    1.5647E+04    0.0000E+00  setid=       0
 node=  6333 local x,y,z forces =   -1.4899E+01    2.1024E+04    0.0000E+00  setid=       0
 node=  6338 local x,y,z forces =   -1.4309E+01    2.6256E+04    0.0000E+00  setid=       0
 node=  6343 local x,y,z forces =   -1.3349E+01    3.1943E+04    0.0000E+00  setid=       0
 node=  6348 local x,y,z forces =   -1.1333E+01    3.6892E+04    0.0000E+00  setid=       0
 node=  6353 local x,y,z forces =   -7.9484E+00    4.2876E+04    0.0000E+00  setid=       0
 node=  6358 local x,y,z forces =   -6.0481E-01    4.6417E+04    0.0000E+00  setid=       0
 node=  6363 local x,y,z forces =    1.2024E+01    5.6333E+04    0.0000E+00  setid=       0
 node=  6368 local x,y,z forces =    3.2673E+01    7.4368E+04    0.0000E+00  setid=       0
 node=  6373 local x,y,z forces =    2.6499E+01    8.0225E+04    0.0000E+00  setid=       0
             force resultants   =    1.3734E+02   -6.5484E-10   -1.1713E+07
 output at time =   1.50000E-03
 node=     1 local x,y,z forces =   -1.1172E+04    2.2274E+03   -5.8271E+03  setid=       0
 node=     2 local x,y,z forces =   -3.3566E+04   -9.5387E+03   -3.0051E+04  setid=       0
 node=     3 local x,y,z forces =   -3.7371E+04   -3.9450E+04   -9.5570E+04  setid=       0
 node=     4 local x,y,z forces =   -2.0271E+04   -7.0632E+04   -1.7108E+05  setid=       0
 node=     5 local x,y,z forces =    2.3163E+04   -4.3204E+04   -1.0752E+05  setid=       0
 node=     6 local x,y,z forces =   -1.4940E+04    6.4208E+03   -4.1733E+03  setid=       0
 node=     7 local x,y,z forces =   -5.2783E+04   -1.9642E+03   -3.9693E+04  setid=       0
 node=     8 local x,y,z forces =   -5.6184E+04   -2.6775E+04   -1.3999E+05  setid=       0
 node=     9 local x,y,z forces =   -2.6962E+04   -5.1024E+04   -2.6139E+05  setid=       0
 node=    10 local x,y,z forces =    4.5972E+04   -3.2665E+04   -1.7196E+05  setid=       0
 node=    11 local x,y,z forces =   -3.3560E+03    6.7774E+03    1.4497E+04  setid=       0
 node=    12 local x,y,z forces =   -3.6556E+04   -7.6478E+02   -1.6571E+04  setid=       0
 node=    13 local x,y,z forces =   -3.4377E+04   -2.6817E+04   -1.1388E+05  setid=       0
 node=    14 local x,y,z forces =   -1.1725E+04   -5.2783E+04   -2.3257E+05  setid=       0
 node=    15 local x,y,z forces =    5.0706E+04   -3.3497E+04   -1.6417E+05  setid=       0
 node=    16 local x,y,z forces =    4.2107E+03    4.5627E+03    3.1382E+04  setid=       0
 node=    17 local x,y,z forces =   -3.0788E+04   -7.1575E+02    1.4247E+02  setid=       0
 node=    18 local x,y,z forces =   -2.6186E+04   -1.9674E+04   -1.1262E+05  setid=       0
 node=    19 local x,y,z forces =   -6.6541E+03   -3.8730E+04   -2.4687E+05  setid=       0
 node=    20 local x,y,z forces =    5.7070E+04   -2.4332E+04   -1.7972E+05  setid=       0
 node=    21 local x,y,z forces =    9.4167E+03    2.9052E+03    4.3767E+04  setid=       0
 node=    22 local x,y,z forces =   -2.7717E+04   -2.1408E+03    1.4109E+04  setid=       0
 node=    23 local x,y,z forces =   -2.2272E+04   -1.7638E+04   -1.0832E+05  setid=       0
 node=    24 local x,y,z forces =   -4.0692E+03   -3.3121E+04   -2.5245E+05  setid=       0
 node=    25 local x,y,z forces =    6.1124E+04   -2.0529E+04   -1.8792E+05  setid=       0
 node=    26 local x,y,z forces =    1.2991E+04    1.4868E+03    5.3118E+04  setid=       0
 node=    27 local x,y,z forces =   -2.6545E+04   -2.7500E+03    2.4095E+04  setid=       0
 node=    28 local x,y,z forces =   -2.0751E+04   -1.4188E+04   -1.0782E+05  setid=       0
 node=    29 local x,y,z forces =   -3.2192E+03   -2.5623E+04   -2.6145E+05  setid=       0
 node=    30 local x,y,z forces =    6.4235E+04   -1.5681E+04   -1.9673E+05  setid=       0
 node=    31 local x,y,z forces =    1.5460E+04    5.6616E+02    5.9958E+04  setid=       0
 node=    32 local x,y,z forces =   -2.6111E+04   -3.2265E+03    3.1868E+04  setid=       0
 node=    33 local x,y,z forces =   -2.0263E+04   -1.2057E+04   -1.0657E+05  setid=       0
 node=    34 local x,y,z forces =   -2.9644E+03   -2.0871E+04   -2.6676E+05  setid=       0
 node=    35 local x,y,z forces =    6.6339E+04   -1.2618E+04   -2.0234E+05  setid=       0
 node=    36 local x,y,z forces =    1.7165E+04   -1.8767E+01    6.4980E+04  setid=       0
 node=    37 local x,y,z forces =   -2.6136E+04   -3.1698E+03    3.7472E+04  setid=       0
 node=    38 local x,y,z forces =   -2.0352E+04   -9.6043E+03   -1.0635E+05  setid=       0
 node=    39 local x,y,z forces =   -3.1012E+03   -1.6037E+04   -2.7193E+05  setid=       0
 node=    40 local x,y,z forces =    6.7869E+04   -9.5945E+03   -2.0714E+05  setid=       0
 node=    41 local x,y,z forces =    1.8337E+04   -3.0955E+02    6.8589E+04  setid=       0
 node=    42 local x,y,z forces =   -2.6313E+04   -2.8950E+03    4.1660E+04  setid=       0
 node=    43 local x,y,z forces =   -2.0641E+04   -7.6199E+03   -1.0590E+05  setid=       0
 node=    44 local x,y,z forces =   -3.3417E+03   -1.2342E+04   -2.7525E+05  setid=       0
 node=    45 local x,y,z forces =    6.8910E+04   -7.3171E+03   -2.1033E+05  setid=       0
 node=    46 local x,y,z forces =    1.9125E+04   -3.9730E+02    7.1121E+04  setid=       0
 node=    47 local x,y,z forces =   -2.6547E+04   -2.3387E+03    4.4568E+04  setid=       0
 node=    48 local x,y,z forces =   -2.0992E+04   -5.5712E+03   -1.0581E+05  setid=       0
 node=    49 local x,y,z forces =   -3.6162E+03   -8.8052E+03   -2.7798E+05  setid=       0
 node=    50 local x,y,z forces =    6.9630E+04   -5.1827E+03   -2.1278E+05  setid=       0
 node=    51 local x,y,z forces =    1.9629E+04   -3.3905E+02    7.2787E+04  setid=       0
 node=    52 local x,y,z forces =   -2.6746E+04   -1.6516E+03    4.6536E+04  setid=       0
 node=    53 local x,y,z forces =   -2.1286E+04   -3.7027E+03   -1.0564E+05  setid=       0
 node=    54 local x,y,z forces =   -3.8377E+03   -5.7543E+03   -2.7963E+05  setid=       0
 node=    55 local x,y,z forces =    7.0086E+04   -3.3692E+03   -2.1429E+05  setid=       0
 node=    56 local x,y,z forces =    1.9908E+04   -1.9132E+02    7.3733E+04  setid=       0
 node=    57 local x,y,z forces =   -2.6881E+04   -8.4651E+02    4.7637E+04  setid=       0
 node=    58 local x,y,z forces =   -2.1484E+04   -1.8271E+03   -1.0563E+05  setid=       0
 node=    59 local x,y,z forces =   -3.9858E+03   -2.8086E+03   -2.8070E+05  setid=       0
 node=    60 local x,y,z forces =    7.0345E+04   -1.6392E+03   -2.1523E+05  setid=       0
 node=    61 local x,y,z forces =    1.9998E+04    1.0914E-10    7.4040E+04  setid=       0
 node=    62 local x,y,z forces =   -2.6926E+04    1.2824E-10    4.8010E+04  setid=       0
 node=    63 local x,y,z forces =   -2.1550E+04   -1.5280E-10   -1.0557E+05  setid=       0
 node=    64 local x,y,z forces =   -4.0345E+03    2.7649E-10   -2.8097E+05  setid=       0
 node=    65 local x,y,z forces =    7.0425E+04    1.4552E-11   -2.1549E+05  setid=       0
 node=    66 local x,y,z forces =    1.9908E+04    1.9132E+02    7.3733E+04  setid=       0
 node=    67 local x,y,z forces =   -2.6881E+04    8.4651E+02    4.7637E+04  setid=       0
 node=    68 local x,y,z forces =   -2.1484E+04    1.8271E+03   -1.0563E+05  setid=       0
 node=    69 local x,y,z forces =   -3.9858E+03    2.8086E+03   -2.8070E+05  setid=       0
 node=    70 local x,y,z forces =    7.0345E+04    1.6392E+03   -2.1523E+05  setid=       0
 node=    71 local x,y,z forces =    1.9629E+04    3.3905E+02    7.2787E+04  setid=       0
 node=    72 local x,y,z forces =   -2.6746E+04    1.6516E+03    4.6536E+04  setid=       0
 node=    73 local x,y,z forces =   -2.1286E+04    3.7027E+03   -1.0564E+05  setid=       0
 node=    74 local x,y,z forces =   -3.8377E+03    5.7543E+03   -2.7963E+05  setid=       0
 node=    75 local x,y,z forces =    7.0086E+04    3.3692E+03   -2.1429E+05  setid=       0
 node=    76 local x,y,z forces =    1.9125E+04    3.9730E+02    7.1121E+04  setid=       0
 node=    77 local x,y,z forces =   -2.6547E+04    2.3387E+03    4.4568E+04  setid=       0
 node=    78 local x,y,z forces =   -2.0992E+04    5.5712E+03   -1.0581E+05  setid=       0
 node=    79 local x,y,z forces =   -3.6162E+03    8.8052E+03   -2.7798E+05  setid=       0
 node=    80 local x,y,z forces =    6.9630E+04    5.1827E+03   -2.1278E+05  setid=       0
 node=    81 local x,y,z forces =    1.8337E+04    3.0955E+02    6.8589E+04  setid=       0
 node=    82 local x,y,z forces =   -2.6313E+04    2.8950E+03    4.1660E+04  setid=       0
 node=    83 local x,y,z forces =   -2.0641E+04    7.6199E+03   -1.0590E+05  setid=       0
 node=    84 local x,y,z forces =   -3.3417E+03    1.2342E+04   -2.7525E+05  setid=       0
 node=    85 local x,y,z forces =    6.8910E+04    7.3171E+03   -2.1033E+05  setid=       0
 node=    86 local x,y,z forces =    1.7165E+04    1.8767E+01    6.4980E+04  setid=       0
 node=    87 local x,y,z forces =   -2.6136E+04    3.1698E+03    3.7472E+04  setid=       0
 node=    88 local x,y,z forces =   -2.0352E+04    9.6043E+03   -1.0635E+05  setid=       0
 node=    89 local x,y,z forces =   -3.1012E+03    1.6037E+04   -2.7193E+05  setid=       0
 node=    90 local x,y,z forces =    6.7869E+04    9.5945E+03   -2.0714E+05  setid=       0
 node=    91 local x,y,z forces =    1.5460E+04   -5.6616E+02    5.9958E+04  setid=       0
 node=    92 local x,y,z forces =   -2.6111E+04    3.2265E+03    3.1868E+04  setid=       0
 node=    93 local x,y,z forces =   -2.0263E+04    1.2057E+04   -1.0657E+05  setid=       0
 node=    94 local x,y,z forces =   -2.9644E+03    2.0871E+04   -2.6676E+05  setid=       0
 node=    95 local x,y,z forces =    6.6339E+04    1.2618E+04   -2.0234E+05  setid=       0
 node=    96 local x,y,z forces =    1.2991E+04   -1.4868E+03    5.3118E+04  setid=       0
 node=    97 local x,y,z forces =   -2.6545E+04    2.7500E+03    2.4095E+04  setid=       0
 node=    98 local x,y,z forces =   -2.0751E+04    1.4188E+04   -1.0782E+05  setid=       0
 node=    99 local x,y,z forces =   -3.2192E+03    2.5623E+04   -2.6145E+05  setid=       0
 node=   100 local x,y,z forces =    6.4235E+04    1.5681E+04   -1.9673E+05  setid=       0
 node=   101 local x,y,z forces =    9.4167E+03   -2.9052E+03    4.3767E+04  setid=       0
 node=   102 local x,y,z forces =   -2.7717E+04    2.1408E+03    1.4109E+04  setid=       0
 node=   103 local x,y,z forces =   -2.2272E+04    1.7638E+04   -1.0832E+05  setid=       0
 node=   104 local x,y,z forces =   -4.0692E+03    3.3121E+04   -2.5245E+05  setid=       0
 node=   105 local x,y,z forces =    6.1124E+04    2.0529E+04   -1.8792E+05  setid=       0
 node=   106 local x,y,z forces =    4.2107E+03   -4.5627E+03    3.1382E+04  setid=       0
 node=   107 local x,y,z forces =   -3.0788E+04    7.1575E+02    1.4247E+02  setid=       0
 node=   108 local x,y,z forces =   -2.6186E+04    1.9674E+04   -1.1262E+05  setid=       0
 node=   109 local x,y,z forces =   -6.6541E+03    3.8730E+04   -2.4687E+05  setid=       0
 node=   110 local x,y,z forces =    5.7070E+04    2.4332E+04   -1.7972E+05  setid=       0
 node=   111 local x,y,z forces =   -3.3560E+03   -6.7774E+03    1.4497E+04  setid=       0
 node=   112 local x,y,z forces =   -3.6556E+04    7.6478E+02   -1.6571E+04  setid=       0
 node=   113 local x,y,z forces =   -3.4377E+04    2.6817E+04   -1.1388E+05  setid=       0
 node=   114 local x,y,z forces =   -1.1725E+04    5.2783E+04   -2.3257E+05  setid=       0
 node=   115 local x,y,z forces =    5.0706E+04    3.3497E+04   -1.6417E+05  setid=       0
 node=   116 local x,y,z forces =   -1.4940E+04   -6.4208E+03   -4.1733E+03  setid=       0
 node=   117 local x,y,z forces =   -5.2783E+04    1.9642E+03   -3.9693E+04  setid=       0
 node=   118 local x,y,z forces =   -5.6184E+04    2.6775E+04   -1.3999E+05  setid=       0
 node=   119 local x,y,z forces =   -2.6962E+04    5.1024E+04   -2.6139E+05  setid=       0
 node=   120 local x,y,z forces =    4.5972E+04    3.2665E+04   -1.7196E+05  setid=       0
 node=   121 local x,y,z forces =   -1.1172E+04   -2.2274E+03   -5.8271E+03  setid=       0
 node=   122 local x,y,z forces =   -3.3566E+04    9.5387E+03   -3.0051E+04  setid=       0
 node=   123 local x,y,z forces =   -3.7371E+04    3.9450E+04   -9.5570E+04  setid=       0
 node=   124 local x,y,z forces =   -2.0271E+04    7.0632E+04   -1.7108E+05  setid=       0
 node=   125 local x,y,z forces =    2.3163E+04    4.3204E+04   -1.0752E+05  setid=       0
 node=  6253 local x,y,z forces =    1.8186E+04   -8.4178E+04    0.0000E+00  setid=       0
 node=  6258 local x,y,z forces =    2.0385E+04   -7.8156E+04    0.0000E+00  setid=       0
 node=  6263 local x,y,z forces =    5.9196E+03   -5.9253E+04    0.0000E+00  setid=       0
 node=  6268 local x,y,z forces =   -2.8873E+03   -4.8857E+04    0.0000E+00  setid=       0
 node=  6273 local x,y,z forces =   -7.9548E+03   -4.5146E+04    0.0000E+00  setid=       0
 node=  6278 local x,y,z forces =   -1.0269E+04   -3.8863E+04    0.0000E+00  setid=       0
 node=  6283 local x,y,z forces =   -1.1660E+04   -3.3660E+04    0.0000E+00  setid=       0
 node=  6288 local x,y,z forces =   -1.2303E+04   -2.7678E+04    0.0000E+00  setid=       0
 node=  6293 local x,y,z forces =   -1.2698E+04   -2.2169E+04    0.0000E+00  setid=       0
 node=  6298 local x,y,z forces =   -1.2870E+04   -1.6503E+04    0.0000E+00  setid=       0
 node=  6303 local x,y,z forces =   -1.2978E+04   -1.1004E+04    0.0000E+00  setid=       0
 node=  6308 local x,y,z forces =   -1.3014E+04   -5.4814E+03    0.0000E+00  setid=       0
 node=  6313 local x,y,z forces =   -1.3033E+04   -1.4334E-09    0.0000E+00  setid=       0
 node=  6318 local x,y,z forces =   -1.3014E+04    5.4814E+03    0.0000E+00  setid=       0
 node=  6323 local x,y,z forces =   -1.2978E+04    1.1004E+04    0.0000E+00  setid=       0
 node=  6328 local x,y,z forces =   -1.2870E+04    1.6503E+04    0.0000E+00  setid=       0
 node=  6333 local x,y,z forces =   -1.2698E+04    2.2169E+04    0.0000E+00  setid=       0
 node=  6338 local x,y,z forces =   -1.2303E+04    2.7678E+04    0.0000E+00  setid=       0
 node=  6343 local x,y,z forces =   -1.1660E+04    3.3660E+04    0.0000E+00  setid=       0
 node=  6348 local x,y,z forces =   -1.0269E+04    3.8863E+04    0.0000E+00  setid=       0
 node=  6353 local x,y,z forces =   -7.9548E+03    4.5146E+04    0.0000E+00  setid=       0
 node=  6358 local x,y,z forces =   -2.8873E+03    4.8857E+04    0.0000E+00  setid=       0
 node=  6363 local x,y,z forces =    5.9196E+03    5.9253E+04    0.0000E+00  setid=       0
 node=  6368 local x,y,z forces =    2.0385E+04    7.8156E+04    0.0000E+00  setid=       0
 node=  6373 local x,y,z forces =    1.8186E+04    8.4178E+04    0.0000E+00  setid=       0
             force resultants   =   -1.5050E+02   -4.8749E-09   -1.2313E+07
 output at time =   2.00000E-03
 node=     1 local x,y,z forces =   -8.3719E+03    1.2566E+04    1.7304E+04  setid=       0
 node=     2 local x,y,z forces =   -4.5775E+04    4.3835E+03    2.1526E+03  setid=       0
 node=     3 local x,y,z forces =   -5.4332E+04   -3.9436E+04   -9.5418E+04  setid=       0
 node=     4 local x,y,z forces =   -3.2493E+04   -8.4440E+04   -2.0289E+05  setid=       0
 node=     5 local x,y,z forces =    2.5806E+04   -5.3486E+04   -1.3055E+05  setid=       0
 node=     6 local x,y,z forces =   -7.7816E+03    1.5243E+04    3.4070E+04  setid=       0
 node=     7 local x,y,z forces =   -7.0908E+04    9.1392E+03    1.1062E+04  setid=       0
 node=     8 local x,y,z forces =   -8.1684E+04   -2.6784E+04   -1.3968E+05  setid=       0
 node=     9 local x,y,z forces =   -4.5025E+04   -6.2190E+04   -3.1127E+05  setid=       0
 node=    10 local x,y,z forces =    5.2902E+04   -4.1584E+04   -2.0988E+05  setid=       0
 node=    11 local x,y,z forces =    7.4728E+03    1.5840E+04    5.5157E+04  setid=       0
 node=    12 local x,y,z forces =   -4.7513E+04    1.0898E+04    3.2888E+04  setid=       0
 node=    13 local x,y,z forces =   -4.9979E+04   -2.6945E+04   -1.1358E+05  setid=       0
 node=    14 local x,y,z forces =   -2.2674E+04   -6.4730E+04   -2.8116E+05  setid=       0
 node=    15 local x,y,z forces =    6.1371E+04   -4.2713E+04   -2.0460E+05  setid=       0
 node=    16 local x,y,z forces =    1.8195E+04    1.1032E+04    7.9266E+04  setid=       0
 node=    17 local x,y,z forces =   -3.9236E+04    7.7562E+03    5.6528E+04  setid=       0
 node=    18 local x,y,z forces =   -3.8072E+04   -1.9817E+04   -1.1242E+05  setid=       0
 node=    19 local x,y,z forces =   -1.5192E+04   -4.7511E+04   -3.0260E+05  setid=       0
 node=    20 local x,y,z forces =    7.0901E+04   -3.0976E+04   -2.2765E+05  setid=       0
 node=    21 local x,y,z forces =    2.5479E+04    8.1315E+03    9.6219E+04  setid=       0
 node=    22 local x,y,z forces =   -3.4875E+04    4.7254E+03    7.4830E+04  setid=       0
 node=    23 local x,y,z forces =   -3.2382E+04   -1.7794E+04   -1.0821E+05  setid=       0
 node=    24 local x,y,z forces =   -1.1331E+04   -4.0315E+04   -3.1273E+05  setid=       0
 node=    25 local x,y,z forces =    7.7079E+04   -2.5938E+04   -2.4063E+05  setid=       0
 node=    26 local x,y,z forces =    3.0560E+04    5.2963E+03    1.0960E+05  setid=       0
 node=    27 local x,y,z forces =   -3.3226E+04    2.2872E+03    8.9025E+04  setid=       0
 node=    28 local x,y,z forces =   -3.0171E+04   -1.4337E+04   -1.0780E+05  setid=       0
 node=    29 local x,y,z forces =   -1.0041E+04   -3.0966E+04   -3.2613E+05  setid=       0
 node=    30 local x,y,z forces =    8.1715E+04   -1.9663E+04   -2.5366E+05  setid=       0
 node=    31 local x,y,z forces =    3.4052E+04    3.4793E+03    1.1919E+05  setid=       0
 node=    32 local x,y,z forces =   -3.2633E+04    6.3684E+02    9.9684E+04  setid=       0
 node=    33 local x,y,z forces =   -2.9463E+04   -1.2194E+04   -1.0662E+05  setid=       0
 node=    34 local x,y,z forces =   -9.6325E+03   -2.5015E+04   -3.3449E+05  setid=       0
 node=    35 local x,y,z forces =    8.4872E+04   -1.5688E+04   -2.6216E+05  setid=       0
 node=    36 local x,y,z forces =    3.6482E+04    2.0864E+03    1.2638E+05  setid=       0
 node=    37 local x,y,z forces =   -3.2691E+04   -3.7074E+02    1.0766E+05  setid=       0
 node=    38 local x,y,z forces =   -2.9594E+04   -9.7230E+03   -1.0647E+05  setid=       0
 node=    39 local x,y,z forces =   -9.8126E+03   -1.9077E+04   -3.4218E+05  setid=       0
 node=    40 local x,y,z forces =    8.7143E+04   -1.1834E+04   -2.6926E+05  setid=       0
 node=    41 local x,y,z forces =    3.8147E+04    1.2248E+03    1.3148E+05  setid=       0
 node=    42 local x,y,z forces =   -3.2963E+04   -8.5101E+02    1.1350E+05  setid=       0
 node=    43 local x,y,z forces =   -3.0015E+04   -7.7182E+03   -1.0608E+05  setid=       0
 node=    44 local x,y,z forces =   -1.0148E+04   -1.4584E+04   -3.4726E+05  setid=       0
 node=    45 local x,y,z forces =    8.8695E+04   -8.9620E+03   -2.7403E+05  setid=       0
 node=    46 local x,y,z forces =    3.9271E+04    6.4614E+02    1.3511E+05  setid=       0
 node=    47 local x,y,z forces =   -3.3311E+04   -9.4725E+02    1.1764E+05  setid=       0
 node=    48 local x,y,z forces =   -3.0525E+04   -5.6463E+03   -1.0602E+05  setid=       0
 node=    49 local x,y,z forces =   -1.0540E+04   -1.0347E+04   -3.5132E+05  setid=       0
 node=    50 local x,y,z forces =    8.9764E+04   -6.3102E+03   -2.7765E+05  setid=       0
 node=    51 local x,y,z forces =    3.9986E+04    3.1989E+02    1.3747E+05  setid=       0
 node=    52 local x,y,z forces =   -3.3606E+04   -7.7206E+02    1.2040E+05  setid=       0
 node=    53 local x,y,z forces =   -3.0954E+04   -3.7536E+03   -1.0588E+05  setid=       0
 node=    54 local x,y,z forces =   -1.0856E+04   -6.7358E+03   -3.5381E+05  setid=       0
 node=    55 local x,y,z forces =    9.0442E+04   -4.0849E+03   -2.7991E+05  setid=       0
 node=    56 local x,y,z forces =    4.0385E+04    1.2283E+02    1.3883E+05  setid=       0
 node=    57 local x,y,z forces =   -3.3806E+04   -4.2708E+02    1.2197E+05  setid=       0
 node=    58 local x,y,z forces =   -3.1241E+04   -1.8527E+03   -1.0588E+05  setid=       0
 node=    59 local x,y,z forces =   -1.1069E+04   -3.2792E+03   -3.5539E+05  setid=       0
 node=    60 local x,y,z forces =    9.0825E+04   -1.9818E+03   -2.8129E+05  setid=       0
 node=    61 local x,y,z forces =    4.0512E+04    4.3656E-11    1.3926E+05  setid=       0
 node=    62 local x,y,z forces =   -3.3873E+04   -8.6857E-11    1.2249E+05  setid=       0
 node=    63 local x,y,z forces =   -3.1338E+04   -1.8190E-10   -1.0584E+05  setid=       0
 node=    64 local x,y,z forces =   -1.1139E+04   -1.1642E-10   -3.5582E+05  setid=       0
 node=    65 local x,y,z forces =    9.0946E+04    1.8917E-10   -2.8168E+05  setid=       0
 node=    66 local x,y,z forces =    4.0385E+04   -1.2283E+02    1.3883E+05  setid=       0
 node=    67 local x,y,z forces =   -3.3806E+04    4.2708E+02    1.2197E+05  setid=       0
 node=    68 local x,y,z forces =   -3.1241E+04    1.8527E+03   -1.0588E+05  setid=       0
 node=    69 local x,y,z forces =   -1.1069E+04    3.2792E+03   -3.5539E+05  setid=       0
 node=    70 local x,y,z forces =    9.0825E+04    1.9818E+03   -2.8129E+05  setid=       0
 node=    71 local x,y,z forces =    3.9986E+04   -3.1989E+02    1.3747E+05  setid=       0
 node=    72 local x,y,z forces =   -3.3606E+04    7.7206E+02    1.2040E+05  setid=       0
 node=    73 local x,y,z forces =   -3.0954E+04    3.7536E+03   -1.0588E+05  setid=       0
 node=    74 local x,y,z forces =   -1.0856E+04    6.7358E+03   -3.5381E+05  setid=       0
 node=    75 local x,y,z forces =    9.0442E+04    4.0849E+03   -2.7991E+05  setid=       0
 node=    76 local x,y,z forces =    3.9271E+04   -6.4614E+02    1.3511E+05  setid=       0
 node=    77 local x,y,z forces =   -3.3311E+04    9.4725E+02    1.1764E+05  setid=       0
 node=    78 local x,y,z forces =   -3.0525E+04    5.6463E+03   -1.0602E+05  setid=       0
 node=    79 local x,y,z forces =   -1.0540E+04    1.0347E+04   -3.5132E+05  setid=       0
 node=    80 local x,y,z forces =    8.9764E+04    6.3102E+03   -2.7765E+05  setid=       0
 node=    81 local x,y,z forces =    3.8147E+04   -1.2248E+03    1.3148E+05  setid=       0
 node=    82 local x,y,z forces =   -3.2963E+04    8.5101E+02    1.1350E+05  setid=       0
 node=    83 local x,y,z forces =   -3.0015E+04    7.7182E+03   -1.0608E+05  setid=       0
 node=    84 local x,y,z forces =   -1.0148E+04    1.4584E+04   -3.4726E+05  setid=       0
 node=    85 local x,y,z forces =    8.8695E+04    8.9620E+03   -2.7403E+05  setid=       0
 node=    86 local x,y,z forces =    3.6482E+04   -2.0864E+03    1.2638E+05  setid=       0
 node=    87 local x,y,z forces =   -3.2691E+04    3.7074E+02    1.0766E+05  setid=       0
 node=    88 local x,y,z forces =   -2.9594E+04    9.7230E+03   -1.0647E+05  setid=       0
 node=    89 local x,y,z forces =   -9.8126E+03    1.9077E+04   -3.4218E+05  setid=       0
 node=    90 local x,y,z forces =    8.7143E+04    1.1834E+04   -2.6926E+05  setid=       0
 node=    91 local x,y,z forces =    3.4052E+04   -3.4793E+03    1.1919E+05  setid=       0
 node=    92 local x,y,z forces =   -3.2633E+04   -6.3684E+02    9.9684E+04  setid=       0
 node=    93 local x,y,z forces =   -2.9463E+04    1.2194E+04   -1.0662E+05  setid=       0
 node=    94 local x,y,z forces =   -9.6325E+03    2.5015E+04   -3.3449E+05  setid=       0
 node=    95 local x,y,z forces =    8.4872E+04    1.5688E+04   -2.6216E+05  setid=       0
 node=    96 local x,y,z forces =    3.0560E+04   -5.2963E+03    1.0960E+05  setid=       0
 node=    97 local x,y,z forces =   -3.3226E+04   -2.2872E+03    8.9025E+04  setid=       0
 node=    98 local x,y,z forces =   -3.0171E+04    1.4337E+04   -1.0780E+05  setid=       0
 node=    99 local x,y,z forces =   -1.0041E+04    3.0966E+04   -3.2613E+05  setid=       0
 node=   100 local x,y,z forces =    8.1715E+04    1.9663E+04   -2.5366E+05  setid=       0
 node=   101 local x,y,z forces =    2.5479E+04   -8.1315E+03    9.6219E+04  setid=       0
 node=   102 local x,y,z forces =   -3.4875E+04   -4.7254E+03    7.4830E+04  setid=       0
 node=   103 local x,y,z forces =   -3.2382E+04    1.7794E+04   -1.0821E+05  setid=       0
 node=   104 local x,y,z forces =   -1.1331E+04    4.0315E+04   -3.1273E+05  setid=       0
 node=   105 local x,y,z forces =    7.7079E+04    2.5938E+04   -2.4063E+05  setid=       0
 node=   106 local x,y,z forces =    1.8195E+04   -1.1032E+04    7.9266E+04  setid=       0
 node=   107 local x,y,z forces =   -3.9236E+04   -7.7562E+03    5.6528E+04  setid=       0
 node=   108 local x,y,z forces =   -3.8072E+04    1.9817E+04   -1.1242E+05  setid=       0
 node=   109 local x,y,z forces =   -1.5192E+04    4.7511E+04   -3.0260E+05  setid=       0
 node=   110 local x,y,z forces =    7.0901E+04    3.0976E+04   -2.2765E+05  setid=       0
 node=   111 local x,y,z forces =    7.4728E+03   -1.5840E+04    5.5157E+04  setid=       0
 node=   112 local x,y,z forces =   -4.7513E+04   -1.0898E+04    3.2888E+04  setid=       0
 node=   113 local x,y,z forces =   -4.9979E+04    2.6945E+04   -1.1358E+05  setid=       0
 node=   114 local x,y,z forces =   -2.2674E+04    6.4730E+04   -2.8116E+05  setid=       0
 node=   115 local x,y,z forces =    6.1371E+04    4.2713E+04   -2.0460E+05  setid=       0
 node=   116 local x,y,z forces =   -7.7816E+03   -1.5243E+04    3.4070E+04  setid=       0
 node=   117 local x,y,z forces =   -7.0908E+04   -9.1392E+03    1.1062E+04  setid=       0
 node=   118 local x,y,z forces =   -8.1684E+04    2.6784E+04   -1.3968E+05  setid=       0
 node=   119 local x,y,z forces =   -4.5025E+04    6.2190E+04   -3.1127E+05  setid=       0
 node=   120 local x,y,z forces =    5.2902E+04    4.1584E+04   -2.0988E+05  setid=       0
 node=   121 local x,y,z forces =   -8.3719E+03   -1.2566E+04    1.7304E+04  setid=       0
 node=   122 local x,y,z forces =   -4.5775E+04   -4.3835E+03    2.1526E+03  setid=       0
 node=   123 local x,y,z forces =   -5.4332E+04    3.9436E+04   -9.5418E+04  setid=       0
 node=   124 local x,y,z forces =   -3.2493E+04    8.4440E+04   -2.0289E+05  setid=       0
 node=   125 local x,y,z forces =    2.5806E+04    5.3486E+04   -1.3055E+05  setid=       0
 node=  6253 local x,y,z forces =    2.6328E+04   -8.4223E+04    0.0000E+00  setid=       0
 node=  6258 local x,y,z forces =    2.9473E+04   -7.8189E+04    0.0000E+00  setid=       0
 node=  6263 local x,y,z forces =    8.4867E+03   -5.9331E+04    0.0000E+00  setid=       0
 node=  6268 local x,y,z forces =   -4.2916E+03   -4.8955E+04    0.0000E+00  setid=       0
 node=  6273 local x,y,z forces =   -1.1646E+04   -4.5254E+04    0.0000E+00  setid=       0
 node=  6278 local x,y,z forces =   -1.5006E+04   -3.8975E+04    0.0000E+00  setid=       0
 node=  6283 local x,y,z forces =   -1.7026E+04   -3.3770E+04    0.0000E+00  setid=       0
 node=  6288 local x,y,z forces =   -1.7963E+04   -2.7780E+04    0.0000E+00  setid=       0
 node=  6293 local x,y,z forces =   -1.8538E+04   -2.2256E+04    0.0000E+00  setid=       0
 node=  6298 local x,y,z forces =   -1.8789E+04   -1.6573E+04    0.0000E+00  setid=       0
 node=  6303 local x,y,z forces =   -1.8948E+04   -1.1052E+04    0.0000E+00  setid=       0
 node=  6308 local x,y,z forces =   -1.9000E+04   -5.5063E+03    0.0000E+00  setid=       0
 node=  6313 local x,y,z forces =   -1.9029E+04    0.0000E+00    0.0000E+00  setid=       0
 node=  6318 local x,y,z forces =   -1.9000E+04    5.5063E+03    0.0000E+00  setid=       0
 node=  6323 local x,y,z forces =   -1.8948E+04    1.1052E+04    0.0000E+00  setid=       0
 node=  6328 local x,y,z forces =   -1.8789E+04    1.6573E+04    0.0000E+00  setid=       0
 node=  6333 local x,y,z forces =   -1.8538E+04    2.2256E+04    0.0000E+00  setid=       0
 node=  6338 local x,y,z forces =   -1.7963E+04    2.7780E+04    0.0000E+00  setid=       0
 node=  6343 local x,y,z forces =   -1.7026E+04    3.3770E+04    0.0000E+00  setid=       0
 node=  6348 local x,y,z forces =   -1.5006E+04    3.8975E+04    0.0000E+00  setid=       0
 node=  6353 local x,y,z forces =   -1.1646E+04    4.5254E+04    0.0000E+00  setid=       0
 node=  6358 local x,y,z forces =   -4.2916E+03    4.8955E+04    0.0000E+00  setid=       0
 node=  6363 local x,y,z forces =    8.4867E+03    5.9331E+04    0.0000E+00  setid=       0
 node=  6368 local x,y,z forces =    2.9473E+04    7.8189E+04    0.0000E+00  setid=       0
 node=  6373 local x,y,z forces =    2.6328E+04    8.4223E+04    0.0000E+00  setid=       0
             force resultants   =   -2.5139E+03    1.1001E-08   -1.2320E+07
 output at time =   2.50000E-03
 node=     1 local x,y,z forces =   -6.2216E+03    2.0404E+04    3.4850E+04  setid=       0
 node=     2 local x,y,z forces =   -5.4996E+04    1.4949E+04    2.6618E+04  setid=       0
 node=     3 local x,y,z forces =   -6.7151E+04   -3.9400E+04   -9.5214E+04  setid=       0
 node=     4 local x,y,z forces =   -4.1734E+04   -9.4848E+04   -2.2685E+05  setid=       0
 node=     5 local x,y,z forces =    2.7783E+04   -6.1245E+04   -1.4793E+05  setid=       0
 node=     6 local x,y,z forces =   -2.3148E+03    2.1907E+04    6.3099E+04  setid=       0
 node=     7 local x,y,z forces =   -8.4603E+04    1.7541E+04    4.9654E+04  setid=       0
 node=     8 local x,y,z forces =   -1.0095E+05   -2.6778E+04   -1.3930E+05  setid=       0
 node=     9 local x,y,z forces =   -5.8672E+04   -7.0623E+04   -3.4882E+05  setid=       0
 node=    10 local x,y,z forces =    5.8109E+04   -4.8330E+04   -2.3849E+05  setid=       0
 node=    11 local x,y,z forces =    1.5703E+04    2.2677E+04    8.5993E+04  setid=       0
 node=    12 local x,y,z forces =   -5.5784E+04    1.9691E+04    7.0485E+04  setid=       0
 node=    13 local x,y,z forces =   -6.1769E+04   -2.7059E+04   -1.1321E+05  setid=       0
 node=    14 local x,y,z forces =   -3.0950E+04   -7.3780E+04   -3.1775E+05  setid=       0
 node=    15 local x,y,z forces =    6.9411E+04   -4.9690E+04   -2.3513E+05  setid=       0
 node=    16 local x,y,z forces =    2.8808E+04    1.5904E+04    1.1553E+05  setid=       0
 node=    17 local x,y,z forces =   -4.5600E+04    1.4129E+04    9.9330E+04  setid=       0
 node=    18 local x,y,z forces =   -4.7056E+04   -1.9950E+04   -1.1216E+05  setid=       0
 node=    19 local x,y,z forces =   -2.1659E+04   -5.4173E+04   -3.4462E+05  setid=       0
 node=    20 local x,y,z forces =    8.1335E+04   -3.6012E+04   -2.6388E+05  setid=       0
 node=    21 local x,y,z forces =    3.7654E+04    1.2061E+04    1.3590E+05  setid=       0
 node=    22 local x,y,z forces =   -4.0264E+04    9.8803E+03    1.2088E+05  setid=       0
 node=    23 local x,y,z forces =   -4.0025E+04   -1.7942E+04   -1.0804E+05  setid=       0
 node=    24 local x,y,z forces =   -1.6835E+04   -4.5779E+04   -3.5820E+05  setid=       0
 node=    25 local x,y,z forces =    8.9122E+04   -3.0041E+04   -2.8049E+05  setid=       0
 node=    26 local x,y,z forces =    4.3870E+04    8.1553E+03    1.5230E+05  setid=       0
 node=    27 local x,y,z forces =   -3.8251E+04    6.0604E+03    1.3823E+05  setid=       0
 node=    28 local x,y,z forces =   -3.7295E+04   -1.4478E+04   -1.0772E+05  setid=       0
 node=    29 local x,y,z forces =   -1.5218E+04   -3.5030E+04   -3.7496E+05  setid=       0
 node=    30 local x,y,z forces =    9.4912E+04   -2.2686E+04   -2.9672E+05  setid=       0
 node=    31 local x,y,z forces =    4.8130E+04    5.6622E+03    1.6394E+05  setid=       0
 node=    32 local x,y,z forces =   -3.7539E+04    3.5251E+03    1.5104E+05  setid=       0
 node=    33 local x,y,z forces =   -3.6422E+04   -1.2325E+04   -1.0662E+05  setid=       0
 node=    34 local x,y,z forces =   -1.4695E+04   -2.8170E+04   -3.8564E+05  setid=       0
 node=    35 local x,y,z forces =    9.8866E+04   -1.8021E+04   -3.0744E+05  setid=       0
 node=    36 local x,y,z forces =    5.1104E+04    3.6610E+03    1.7276E+05  setid=       0
 node=    37 local x,y,z forces =   -3.7620E+04    1.7171E+03    1.6080E+05  setid=       0
 node=    38 local x,y,z forces =   -3.6584E+04   -9.8368E+03   -1.0654E+05  setid=       0
 node=    39 local x,y,z forces =   -1.4910E+04   -2.1395E+04   -3.9525E+05  setid=       0
 node=    40 local x,y,z forces =    1.0170E+05   -1.3538E+04   -3.1628E+05  setid=       0
 node=    41 local x,y,z forces =    5.3137E+04    2.3708E+03    1.7898E+05  setid=       0
 node=    42 local x,y,z forces =   -3.7964E+04    6.7070E+02    1.6786E+05  setid=       0
 node=    43 local x,y,z forces =   -3.7106E+04   -7.8126E+03   -1.0619E+05  setid=       0
 node=    44 local x,y,z forces =   -1.5319E+04   -1.6296E+04   -4.0166E+05  setid=       0
 node=    45 local x,y,z forces =    1.0364E+05   -1.0214E+04   -3.2226E+05  setid=       0
 node=    46 local x,y,z forces =    5.4512E+04    1.4243E+03    1.8342E+05  setid=       0
 node=    47 local x,y,z forces =   -3.8399E+04    8.6673E+01    1.7293E+05  setid=       0
 node=    48 local x,y,z forces =   -3.7739E+04   -5.7185E+03   -1.0618E+05  setid=       0
 node=    49 local x,y,z forces =   -1.5799E+04   -1.1526E+04   -4.0673E+05  setid=       0
 node=    50 local x,y,z forces =    1.0497E+05   -7.1694E+03   -3.2677E+05  setid=       0
 node=    51 local x,y,z forces =    5.5386E+04    8.1082E+02    1.8630E+05  setid=       0
 node=    52 local x,y,z forces =   -3.8768E+04   -1.1932E+02    1.7627E+05  setid=       0
 node=    53 local x,y,z forces =   -3.8268E+04   -3.8025E+03   -1.0607E+05  setid=       0
 node=    54 local x,y,z forces =   -1.6188E+04   -7.4866E+03   -4.0987E+05  setid=       0
 node=    55 local x,y,z forces =    1.0582E+05   -4.6305E+03   -3.2960E+05  setid=       0
 node=    56 local x,y,z forces =    5.5874E+04    3.5669E+02    1.8797E+05  setid=       0
 node=    57 local x,y,z forces =   -3.9016E+04   -1.1614E+02    1.7820E+05  setid=       0
 node=    58 local x,y,z forces =   -3.8625E+04   -1.8774E+03   -1.0608E+05  setid=       0
 node=    59 local x,y,z forces =   -1.6450E+04   -3.6394E+03   -4.1184E+05  setid=       0
 node=    60 local x,y,z forces =    1.0630E+05   -2.2432E+03   -3.3131E+05  setid=       0
 node=    61 local x,y,z forces =    5.6029E+04   -5.8208E-11    1.8849E+05  setid=       0
 node=    62 local x,y,z forces =   -3.9100E+04   -7.6398E-11    1.7882E+05  setid=       0
 node=    63 local x,y,z forces =   -3.8744E+04   -1.6735E-10   -1.0604E+05  setid=       0
 node=    64 local x,y,z forces =   -1.6536E+04    5.8208E-11   -4.1239E+05  setid=       0
 node=    65 local x,y,z forces =    1.0645E+05    8.7311E-11   -3.3181E+05  setid=       0
 node=    66 local x,y,z forces =    5.5874E+04   -3.5669E+02    1.8797E+05  setid=       0
 node=    67 local x,y,z forces =   -3.9016E+04    1.1614E+02    1.7820E+05  setid=       0
 node=    68 local x,y,z forces =   -3.8625E+04    1.8774E+03   -1.0608E+05  setid=       0
 node=    69 local x,y,z forces =   -1.6450E+04    3.6394E+03   -4.1184E+05  setid=       0
 node=    70 local x,y,z forces =    1.0630E+05    2.2432E+03   -3.3131E+05  setid=       0
 node=    71 local x,y,z forces =    5.5386E+04   -8.1082E+02    1.8630E+05  setid=       0
 node=    72 local x,y,z forces =   -3.8768E+04    1.1932E+02    1.7627E+05  setid=       0
 node=    73 local x,y,z forces =   -3.8268E+04    3.8025E+03   -1.0607E+05  setid=       0
 node=    74 local x,y,z forces =   -1.6188E+04    7.4866E+03   -4.0987E+05  setid=       0
 node=    75 local x,y,z forces =    1.0582E+05    4.6305E+03   -3.2960E+05  setid=       0
 node=    76 local x,y,z forces =    5.4512E+04   -1.4243E+03    1.8342E+05  setid=       0
 node=    77 local x,y,z forces =   -3.8399E+04   -8.6673E+01    1.7293E+05  setid=       0
 node=    78 local x,y,z forces =   -3.7739E+04    5.7185E+03   -1.0618E+05  setid=       0
 node=    79 local x,y,z forces =   -1.5799E+04    1.1526E+04   -4.0673E+05  setid=       0
 node=    80 local x,y,z forces =    1.0497E+05    7.1694E+03   -3.2677E+05  setid=       0
 node=    81 local x,y,z forces =    5.3137E+04   -2.3708E+03    1.7898E+05  setid=       0
 node=    82 local x,y,z forces =   -3.7964E+04   -6.7070E+02    1.6786E+05  setid=       0
 node=    83 local x,y,z forces =   -3.7106E+04    7.8126E+03   -1.0619E+05  setid=       0
 node=    84 local x,y,z forces =   -1.5319E+04    1.6296E+04   -4.0166E+05  setid=       0
 node=    85 local x,y,z forces =    1.0364E+05    1.0214E+04   -3.2226E+05  setid=       0
 node=    86 local x,y,z forces =    5.1104E+04   -3.6610E+03    1.7276E+05  setid=       0
 node=    87 local x,y,z forces =   -3.7620E+04   -1.7171E+03    1.6080E+05  setid=       0
 node=    88 local x,y,z forces =   -3.6584E+04    9.8368E+03   -1.0654E+05  setid=       0
 node=    89 local x,y,z forces =   -1.4910E+04    2.1395E+04   -3.9525E+05  setid=       0
 node=    90 local x,y,z forces =    1.0170E+05    1.3538E+04   -3.1628E+05  setid=       0
 node=    91 local x,y,z forces =    4.8130E+04   -5.6622E+03    1.6394E+05  setid=       0
 node=    92 local x,y,z forces =   -3.7539E+04   -3.5251E+03    1.5104E+05  setid=       0
 node=    93 local x,y,z forces =   -3.6422E+04    1.2325E+04   -1.0662E+05  setid=       0
 node=    94 local x,y,z forces =   -1.4695E+04    2.8170E+04   -3.8564E+05  setid=       0
 node=    95 local x,y,z forces =    9.8866E+04    1.8021E+04   -3.0744E+05  setid=       0
 node=    96 local x,y,z forces =    4.3870E+04   -8.1553E+03    1.5230E+05  setid=       0
 node=    97 local x,y,z forces =   -3.8251E+04   -6.0604E+03    1.3823E+05  setid=       0
 node=    98 local x,y,z forces =   -3.7295E+04    1.4478E+04   -1.0772E+05  setid=       0
[...]
 node=    88 local x,y,z forces =   -2.1605E+05    2.0469E+04   -1.1447E+05  setid=       0
 node=    89 local x,y,z forces =   -1.4819E+05    8.5841E+04   -1.7372E+06  setid=       0
 node=    90 local x,y,z forces =    4.6575E+05    5.9510E+04   -1.5282E+06  setid=       0
 node=    91 local x,y,z forces =    4.0510E+05   -5.3997E+04    1.2771E+06  setid=       0
 node=    92 local x,y,z forces =   -1.5423E+05   -6.5078E+04    1.4559E+06  setid=       0
 node=    93 local x,y,z forces =   -2.1432E+05    2.4597E+04   -1.0863E+05  setid=       0
 node=    94 local x,y,z forces =   -1.4622E+05    1.1478E+05   -1.6759E+06  setid=       0
 node=    95 local x,y,z forces =    4.4899E+05    8.0377E+04   -1.4726E+06  setid=       0
 node=    96 local x,y,z forces =    3.8339E+05   -7.2918E+04    1.2200E+06  setid=       0
 node=    97 local x,y,z forces =   -1.5758E+05   -8.8940E+04    1.3957E+06  setid=       0
 node=    98 local x,y,z forces =   -2.1847E+05    2.7755E+04   -1.0273E+05  setid=       0
 node=    99 local x,y,z forces =   -1.4890E+05    1.4527E+05   -1.6025E+06  setid=       0
 node=   100 local x,y,z forces =    4.2487E+05    1.0286E+05   -1.4028E+06  setid=       0
 node=   101 local x,y,z forces =    3.5019E+05   -1.0339E+05    1.1355E+06  setid=       0
 node=   102 local x,y,z forces =   -1.6942E+05   -1.2680E+05    1.3072E+06  setid=       0
 node=   103 local x,y,z forces =   -2.3322E+05    3.1909E+04   -9.4690E+04  setid=       0
 node=   104 local x,y,z forces =   -1.5687E+05    1.9200E+05   -1.4961E+06  setid=       0
 node=   105 local x,y,z forces =    3.9043E+05    1.3773E+05   -1.3008E+06  setid=       0
 node=   106 local x,y,z forces =    3.0457E+05   -1.3142E+05    1.0373E+06  setid=       0
 node=   107 local x,y,z forces =   -1.9915E+05   -1.6263E+05    1.2121E+06  setid=       0
 node=   108 local x,y,z forces =   -2.7287E+05    3.2584E+04   -9.0158E+04  setid=       0
 node=   109 local x,y,z forces =   -1.8486E+05    2.3019E+05   -1.3898E+06  setid=       0
 node=   110 local x,y,z forces =    3.4154E+05    1.6713E+05   -1.1870E+06  setid=       0
 node=   111 local x,y,z forces =    2.3284E+05   -1.8880E+05    8.8163E+05  setid=       0
 node=   112 local x,y,z forces =   -2.6028E+05   -2.3064E+05    1.0609E+06  setid=       0
 node=   113 local x,y,z forces =   -3.5682E+05    3.8236E+04   -8.1410E+04  setid=       0
 node=   114 local x,y,z forces =   -2.3578E+05    3.0979E+05   -1.2198E+06  setid=       0
 node=   115 local x,y,z forces =    2.7009E+05    2.2937E+05   -1.0064E+06  setid=       0
 node=   116 local x,y,z forces =    1.4786E+05   -1.8668E+05    8.1712E+05  setid=       0
 node=   117 local x,y,z forces =   -4.2729E+05   -2.2776E+05    1.0660E+06  setid=       0
 node=   118 local x,y,z forces =   -5.8327E+05    2.6765E+04   -1.0702E+05  setid=       0
 node=   119 local x,y,z forces =   -3.9666E+05    2.8491E+05   -1.2747E+06  setid=       0
 node=   120 local x,y,z forces =    1.8550E+05    2.2131E+05   -9.5786E+05  setid=       0
 node=   121 local x,y,z forces =    5.5573E+04   -2.2144E+05    4.8645E+05  setid=       0
 node=   122 local x,y,z forces =   -2.8440E+05   -2.8727E+05    6.6380E+05  setid=       0
 node=   123 local x,y,z forces =   -3.8824E+05    3.7017E+04   -7.8350E+04  setid=       0
 node=   124 local x,y,z forces =   -2.7306E+05    3.5436E+05   -8.2180E+05  setid=       0
 node=   125 local x,y,z forces =    7.4100E+04    2.5593E+05   -5.8720E+05  setid=       0
 node=  6253 local x,y,z forces =    1.5420E+05   -7.9389E+04    0.0000E+00  setid=       0
 node=  6258 local x,y,z forces =    1.7069E+05   -7.8629E+04    0.0000E+00  setid=       0
 node=  6263 local x,y,z forces =    4.5039E+04   -6.4714E+04    0.0000E+00  setid=       0
 node=  6268 local x,y,z forces =   -3.2466E+04   -5.6594E+04    0.0000E+00  setid=       0
 node=  6273 local x,y,z forces =   -7.7711E+04   -5.3943E+04    0.0000E+00  setid=       0
 node=  6278 local x,y,z forces =   -9.9228E+04   -4.8198E+04    0.0000E+00  setid=       0
 node=  6283 local x,y,z forces =   -1.1274E+05   -4.2922E+04    0.0000E+00  setid=       0
 node=  6288 local x,y,z forces =   -1.1972E+05   -3.6348E+04    0.0000E+00  setid=       0
 node=  6293 local x,y,z forces =   -1.2439E+05   -2.9742E+04    0.0000E+00  setid=       0
 node=  6298 local x,y,z forces =   -1.2693E+05   -2.2567E+04    0.0000E+00  setid=       0
 node=  6303 local x,y,z forces =   -1.2865E+05   -1.5232E+04    0.0000E+00  setid=       0
 node=  6308 local x,y,z forces =   -1.2944E+05   -7.6517E+03    0.0000E+00  setid=       0
 node=  6313 local x,y,z forces =   -1.2977E+05   -9.6043E-10    0.0000E+00  setid=       0
 node=  6318 local x,y,z forces =   -1.2944E+05    7.6517E+03    0.0000E+00  setid=       0
 node=  6323 local x,y,z forces =   -1.2865E+05    1.5232E+04    0.0000E+00  setid=       0
 node=  6328 local x,y,z forces =   -1.2693E+05    2.2567E+04    0.0000E+00  setid=       0
 node=  6333 local x,y,z forces =   -1.2439E+05    2.9742E+04    0.0000E+00  setid=       0
 node=  6338 local x,y,z forces =   -1.1972E+05    3.6348E+04    0.0000E+00  setid=       0
 node=  6343 local x,y,z forces =   -1.1274E+05    4.2922E+04    0.0000E+00  setid=       0
 node=  6348 local x,y,z forces =   -9.9228E+04    4.8198E+04    0.0000E+00  setid=       0
 node=  6353 local x,y,z forces =   -7.7711E+04    5.3943E+04    0.0000E+00  setid=       0
 node=  6358 local x,y,z forces =   -3.2466E+04    5.6594E+04    0.0000E+00  setid=       0
 node=  6363 local x,y,z forces =    4.5039E+04    6.4714E+04    0.0000E+00  setid=       0
 node=  6368 local x,y,z forces =    1.7069E+05    7.8629E+04    0.0000E+00  setid=       0
 node=  6373 local x,y,z forces =    1.5420E+05    7.9389E+04    0.0000E+00  setid=       0
             force resultants   =   -7.5578E+02    2.2410E-09   -1.2596E+07
 output at time =   5.00000E-02
 node=     1 local x,y,z forces =    5.6016E+04    2.2273E+05    4.8937E+05  setid=       0
 node=     2 local x,y,z forces =   -2.8581E+05    2.8903E+05    6.6796E+05  setid=       0
 node=     3 local x,y,z forces =   -3.9024E+05   -3.6992E+04   -7.8171E+04  setid=       0
 node=     4 local x,y,z forces =   -2.7449E+05   -3.5598E+05   -8.2551E+05  setid=       0
 node=     5 local x,y,z forces =    7.4378E+04   -2.5715E+05   -5.9000E+05  setid=       0
 node=     6 local x,y,z forces =    1.4890E+05    1.8769E+05    8.2203E+05  setid=       0
 node=     7 local x,y,z forces =   -4.2941E+05    2.2908E+05    1.0727E+06  setid=       0
 node=     8 local x,y,z forces =   -5.8627E+05   -2.6764E+04   -1.0668E+05  setid=       0
 node=     9 local x,y,z forces =   -3.9873E+05   -2.8627E+05   -1.2804E+06  setid=       0
 node=    10 local x,y,z forces =    1.8629E+05   -2.2241E+05   -9.6242E+05  setid=       0
 node=    11 local x,y,z forces =    2.3428E+05    1.8980E+05    8.8678E+05  setid=       0
 node=    12 local x,y,z forces =   -2.6152E+05    2.3190E+05    1.0674E+06  setid=       0
 node=    13 local x,y,z forces =   -3.5865E+05   -3.8353E+04   -8.1072E+04  setid=       0
 node=    14 local x,y,z forces =   -2.3703E+05   -3.1132E+05   -1.2254E+06  setid=       0
 node=    15 local x,y,z forces =    2.7136E+05   -2.3052E+05   -1.0113E+06  setid=       0
 node=    16 local x,y,z forces =    3.0636E+05    1.3209E+05    1.0432E+06  setid=       0
 node=    17 local x,y,z forces =   -2.0006E+05    1.6348E+05    1.2193E+06  setid=       0
 node=    18 local x,y,z forces =   -2.7428E+05   -3.2716E+04   -8.9923E+04  setid=       0
 node=    19 local x,y,z forces =   -1.8587E+05   -2.3134E+05   -1.3964E+06  setid=       0
 node=    20 local x,y,z forces =    3.4317E+05   -1.6797E+05   -1.1929E+06  setid=       0
 node=    21 local x,y,z forces =    3.5220E+05    1.0392E+05    1.1418E+06  setid=       0
 node=    22 local x,y,z forces =   -1.7018E+05    1.2745E+05    1.3148E+06  setid=       0
 node=    23 local x,y,z forces =   -2.3444E+05   -3.2055E+04   -9.4546E+04  setid=       0
 node=    24 local x,y,z forces =   -1.5775E+05   -1.9295E+05   -1.5032E+06  setid=       0
 node=    25 local x,y,z forces =    3.9232E+05   -1.3842E+05   -1.3074E+06  setid=       0
 node=    26 local x,y,z forces =    3.8555E+05    7.3277E+04    1.2267E+06  setid=       0
 node=    27 local x,y,z forces =   -1.5827E+05    8.9383E+04    1.4037E+06  setid=       0
 node=    28 local x,y,z forces =   -2.1962E+05   -2.7894E+04   -1.0267E+05  setid=       0
 node=    29 local x,y,z forces =   -1.4975E+05   -1.4600E+05   -1.6102E+06  setid=       0
 node=    30 local x,y,z forces =    4.2693E+05   -1.0338E+05   -1.4099E+06  setid=       0
 node=    31 local x,y,z forces =    4.0736E+05    5.4257E+04    1.2840E+06  setid=       0
 node=    32 local x,y,z forces =   -1.5491E+05    6.5393E+04    1.4642E+06  setid=       0
 node=    33 local x,y,z forces =   -2.1546E+05   -2.4725E+04   -1.0865E+05  setid=       0
 node=    34 local x,y,z forces =   -1.4706E+05   -1.1536E+05   -1.6840E+06  setid=       0
 node=    35 local x,y,z forces =    4.5117E+05   -8.0782E+04   -1.4801E+06  setid=       0
 node=    36 local x,y,z forces =    4.2273E+05    3.7760E+04    1.3285E+06  setid=       0
 node=    37 local x,y,z forces =   -1.5569E+05    4.4876E+04    1.5127E+06  setid=       0
 node=    38 local x,y,z forces =   -2.1721E+05   -2.0580E+04   -1.1455E+05  setid=       0
 node=    39 local x,y,z forces =   -1.4905E+05   -8.6272E+04   -1.7457E+06  setid=       0
 node=    40 local x,y,z forces =    4.6802E+05   -5.9810E+04   -1.5360E+06  setid=       0
 node=    41 local x,y,z forces =    4.3279E+05    2.6621E+04    1.3587E+06  setid=       0
 node=    42 local x,y,z forces =   -1.5829E+05    3.1164E+04    1.5460E+06  setid=       0
 node=    43 local x,y,z forces =   -2.2091E+05   -1.6705E+04   -1.1898E+05  setid=       0
 node=    44 local x,y,z forces =   -1.5170E+05   -6.4702E+04   -1.7888E+06  setid=       0
 node=    45 local x,y,z forces =    4.7975E+05   -4.4459E+04   -1.5747E+06  setid=       0
 node=    46 local x,y,z forces =    4.3959E+05    1.7491E+04    1.3806E+06  setid=       0
 node=    47 local x,y,z forces =   -1.6118E+05    2.0144E+04    1.5706E+06  setid=       0
 node=    48 local x,y,z forces =   -2.2511E+05   -1.2510E+04   -1.2264E+05  setid=       0
 node=    49 local x,y,z forces =   -1.5485E+05   -4.5195E+04   -1.8214E+06  setid=       0
 node=    50 local x,y,z forces =    4.8764E+05   -3.0831E+04   -1.6032E+06  setid=       0
 node=    51 local x,y,z forces =    4.4375E+05    1.0781E+04    1.3943E+06  setid=       0
 node=    52 local x,y,z forces =   -1.6371E+05    1.2259E+04    1.5862E+06  setid=       0
 node=    53 local x,y,z forces =   -2.2857E+05   -8.4003E+03   -1.2510E+05  setid=       0
 node=    54 local x,y,z forces =   -1.5725E+05   -2.9069E+04   -1.8424E+06  setid=       0
 node=    55 local x,y,z forces =    4.9273E+05   -1.9722E+04   -1.6214E+06  setid=       0
 node=    56 local x,y,z forces =    4.4608E+05    5.0413E+03    1.4024E+06  setid=       0
 node=    57 local x,y,z forces =   -1.6533E+05    5.6730E+03    1.5954E+06  setid=       0
 node=    58 local x,y,z forces =   -2.3087E+05   -4.1897E+03   -1.2666E+05  setid=       0
 node=    59 local x,y,z forces =   -1.5890E+05   -1.4047E+04   -1.8551E+06  setid=       0
 node=    60 local x,y,z forces =    4.9554E+05   -9.4984E+03   -1.6322E+06  setid=       0
 node=    61 local x,y,z forces =    4.4678E+05   -3.4925E-10    1.4048E+06  setid=       0
 node=    62 local x,y,z forces =   -1.6592E+05   -8.7311E-11    1.5981E+06  setid=       0
 node=    63 local x,y,z forces =   -2.3164E+05   -2.9104E-10   -1.2712E+05  setid=       0
 node=    64 local x,y,z forces =   -1.5941E+05   -2.3283E-10   -1.8588E+06  setid=       0
 node=    65 local x,y,z forces =    4.9646E+05   -5.8208E-10   -1.6354E+06  setid=       0
 node=    66 local x,y,z forces =    4.4608E+05   -5.0413E+03    1.4024E+06  setid=       0
 node=    67 local x,y,z forces =   -1.6533E+05   -5.6730E+03    1.5954E+06  setid=       0
 node=    68 local x,y,z forces =   -2.3087E+05    4.1897E+03   -1.2666E+05  setid=       0
 node=    69 local x,y,z forces =   -1.5890E+05    1.4047E+04   -1.8551E+06  setid=       0
 node=    70 local x,y,z forces =    4.9554E+05    9.4984E+03   -1.6322E+06  setid=       0
 node=    71 local x,y,z forces =    4.4375E+05   -1.0781E+04    1.3943E+06  setid=       0
 node=    72 local x,y,z forces =   -1.6371E+05   -1.2259E+04    1.5862E+06  setid=       0
 node=    73 local x,y,z forces =   -2.2857E+05    8.4003E+03   -1.2510E+05  setid=       0
 node=    74 local x,y,z forces =   -1.5725E+05    2.9069E+04   -1.8424E+06  setid=       0
 node=    75 local x,y,z forces =    4.9273E+05    1.9722E+04   -1.6214E+06  setid=       0
 node=    76 local x,y,z forces =    4.3959E+05   -1.7491E+04    1.3806E+06  setid=       0
 node=    77 local x,y,z forces =   -1.6118E+05   -2.0144E+04    1.5706E+06  setid=       0
 node=    78 local x,y,z forces =   -2.2511E+05    1.2510E+04   -1.2264E+05  setid=       0
 node=    79 local x,y,z forces =   -1.5485E+05    4.5195E+04   -1.8214E+06  setid=       0
 node=    80 local x,y,z forces =    4.8764E+05    3.0831E+04   -1.6032E+06  setid=       0
 node=    81 local x,y,z forces =    4.3279E+05   -2.6621E+04    1.3587E+06  setid=       0
 node=    82 local x,y,z forces =   -1.5829E+05   -3.1164E+04    1.5460E+06  setid=       0
 node=    83 local x,y,z forces =   -2.2091E+05    1.6705E+04   -1.1898E+05  setid=       0
 node=    84 local x,y,z forces =   -1.5170E+05    6.4702E+04   -1.7888E+06  setid=       0
 node=    85 local x,y,z forces =    4.7975E+05    4.4459E+04   -1.5747E+06  setid=       0
 node=    86 local x,y,z forces =    4.2273E+05   -3.7760E+04    1.3285E+06  setid=       0
 node=    87 local x,y,z forces =   -1.5569E+05   -4.4876E+04    1.5127E+06  setid=       0
 node=    88 local x,y,z forces =   -2.1721E+05    2.0580E+04   -1.1455E+05  setid=       0
 node=    89 local x,y,z forces =   -1.4905E+05    8.6272E+04   -1.7457E+06  setid=       0
 node=    90 local x,y,z forces =    4.6802E+05    5.9810E+04   -1.5360E+06  setid=       0
 node=    91 local x,y,z forces =    4.0736E+05   -5.4257E+04    1.2840E+06  setid=       0
 node=    92 local x,y,z forces =   -1.5491E+05   -6.5393E+04    1.4642E+06  setid=       0
 node=    93 local x,y,z forces =   -2.1546E+05    2.4725E+04   -1.0865E+05  setid=       0
 node=    94 local x,y,z forces =   -1.4706E+05    1.1536E+05   -1.6840E+06  setid=       0
 node=    95 local x,y,z forces =    4.5117E+05    8.0782E+04   -1.4801E+06  setid=       0
 node=    96 local x,y,z forces =    3.8555E+05   -7.3277E+04    1.2267E+06  setid=       0
 node=    97 local x,y,z forces =   -1.5827E+05   -8.9383E+04    1.4037E+06  setid=       0
 node=    98 local x,y,z forces =   -2.1962E+05    2.7894E+04   -1.0267E+05  setid=       0
 node=    99 local x,y,z forces =   -1.4975E+05    1.4600E+05   -1.6102E+06  setid=       0
 node=   100 local x,y,z forces =    4.2693E+05    1.0338E+05   -1.4099E+06  setid=       0
 node=   101 local x,y,z forces =    3.5220E+05   -1.0392E+05    1.1418E+06  setid=       0
 node=   102 local x,y,z forces =   -1.7018E+05   -1.2745E+05    1.3148E+06  setid=       0
 node=   103 local x,y,z forces =   -2.3444E+05    3.2055E+04   -9.4546E+04  setid=       0
 node=   104 local x,y,z forces =   -1.5775E+05    1.9295E+05   -1.5032E+06  setid=       0
 node=   105 local x,y,z forces =    3.9232E+05    1.3842E+05   -1.3074E+06  setid=       0
 node=   106 local x,y,z forces =    3.0636E+05   -1.3209E+05    1.0432E+06  setid=       0
 node=   107 local x,y,z forces =   -2.0006E+05   -1.6348E+05    1.2193E+06  setid=       0
 node=   108 local x,y,z forces =   -2.7428E+05    3.2716E+04   -8.9923E+04  setid=       0
 node=   109 local x,y,z forces =   -1.8587E+05    2.3134E+05   -1.3964E+06  setid=       0
 node=   110 local x,y,z forces =    3.4317E+05    1.6797E+05   -1.1929E+06  setid=       0
 node=   111 local x,y,z forces =    2.3428E+05   -1.8980E+05    8.8678E+05  setid=       0
 node=   112 local x,y,z forces =   -2.6152E+05   -2.3190E+05    1.0674E+06  setid=       0
 node=   113 local x,y,z forces =   -3.5865E+05    3.8353E+04   -8.1072E+04  setid=       0
 node=   114 local x,y,z forces =   -2.3703E+05    3.1132E+05   -1.2254E+06  setid=       0
 node=   115 local x,y,z forces =    2.7136E+05    2.3052E+05   -1.0113E+06  setid=       0
 node=   116 local x,y,z forces =    1.4890E+05   -1.8769E+05    8.2203E+05  setid=       0
 node=   117 local x,y,z forces =   -4.2941E+05   -2.2908E+05    1.0727E+06  setid=       0
 node=   118 local x,y,z forces =   -5.8627E+05    2.6764E+04   -1.0668E+05  setid=       0
 node=   119 local x,y,z forces =   -3.9873E+05    2.8627E+05   -1.2804E+06  setid=       0
 node=   120 local x,y,z forces =    1.8629E+05    2.2241E+05   -9.6242E+05  setid=       0
 node=   121 local x,y,z forces =    5.6016E+04   -2.2273E+05    4.8937E+05  setid=       0
 node=   122 local x,y,z forces =   -2.8581E+05   -2.8903E+05    6.6796E+05  setid=       0
 node=   123 local x,y,z forces =   -3.9024E+05    3.6992E+04   -7.8171E+04  setid=       0
 node=   124 local x,y,z forces =   -2.7449E+05    3.5598E+05   -8.2551E+05  setid=       0
 node=   125 local x,y,z forces =    7.4378E+04    2.5715E+05   -5.9000E+05  setid=       0
 node=  6253 local x,y,z forces =    1.5463E+05   -7.9337E+04    0.0000E+00  setid=       0
 node=  6258 local x,y,z forces =    1.7114E+05   -7.8630E+04    0.0000E+00  setid=       0
 node=  6263 local x,y,z forces =    4.5096E+04   -6.4767E+04    0.0000E+00  setid=       0
 node=  6268 local x,y,z forces =   -3.2662E+04   -5.6670E+04    0.0000E+00  setid=       0
 node=  6273 local x,y,z forces =   -7.8063E+04   -5.4030E+04    0.0000E+00  setid=       0
 node=  6278 local x,y,z forces =   -9.9664E+04   -4.8291E+04    0.0000E+00  setid=       0
 node=  6283 local x,y,z forces =   -1.1324E+05   -4.3014E+04    0.0000E+00  setid=       0
 node=  6288 local x,y,z forces =   -1.2025E+05   -3.6434E+04    0.0000E+00  setid=       0
 node=  6293 local x,y,z forces =   -1.2495E+05   -2.9817E+04    0.0000E+00  setid=       0
 node=  6298 local x,y,z forces =   -1.2751E+05   -2.2628E+04    0.0000E+00  setid=       0
 node=  6303 local x,y,z forces =   -1.2924E+05   -1.5274E+04    0.0000E+00  setid=       0
 node=  6308 local x,y,z forces =   -1.3004E+05   -7.6734E+03    0.0000E+00  setid=       0
 node=  6313 local x,y,z forces =   -1.3038E+05   -1.7826E-09    0.0000E+00  setid=       0
 node=  6318 local x,y,z forces =   -1.3004E+05    7.6734E+03    0.0000E+00  setid=       0
 node=  6323 local x,y,z forces =   -1.2924E+05    1.5274E+04    0.0000E+00  setid=       0
 node=  6328 local x,y,z forces =   -1.2751E+05    2.2628E+04    0.0000E+00  setid=       0
 node=  6333 local x,y,z forces =   -1.2495E+05    2.9817E+04    0.0000E+00  setid=       0
 node=  6338 local x,y,z forces =   -1.2025E+05    3.6434E+04    0.0000E+00  setid=       0
 node=  6343 local x,y,z forces =   -1.1324E+05    4.3014E+04    0.0000E+00  setid=       0
 node=  6348 local x,y,z forces =   -9.9664E+04    4.8291E+04    0.0000E+00  setid=       0
 node=  6353 local x,y,z forces =   -7.8063E+04    5.4030E+04    0.0000E+00  setid=       0
 node=  6358 local x,y,z forces =   -3.2662E+04    5.6670E+04    0.0000E+00  setid=       0
 node=  6363 local x,y,z forces =    4.5096E+04    6.4767E+04    0.0000E+00  setid=       0
 node=  6368 local x,y,z forces =    1.7114E+05    7.8630E+04    0.0000E+00  setid=       0
 node=  6373 local x,y,z forces =    1.5463E+05    7.9337E+04    0.0000E+00  setid=       0
             force resultants   =   -7.4078E+02    5.5588E-09   -1.2598E+07
