 400x600                                                                 
                         ls-dyna smp.123264 d           date 01/12/2018

{BEGIN LEGEND}
 Entity #        Title
        0     bottom                                                                
        0     top                                                                   
        0     middle                                                                
{END LEGEND}

 single point constraint forces

 output at time =   0.00000E+00
 node=     1 local x,y,z forces =    0.0000E+00    0.0000E+00    0.0000E+00  setid=       0
 node=     2 local x,y,z forces =    0.0000E+00    0.0000E+00    0.0000E+00  setid=       0
 node=     3 local x,y,z forces =    0.0000E+00    0.0000E+00    0.0000E+00  setid=       0
 node=     4 local x,y,z forces =    0.0000E+00    0.0000E+00    0.0000E+00  setid=       0
 node=     5 local x,y,z forces =    0.0000E+00    0.0000E+00    0.0000E+00  setid=       0
 node=     6 local x,y,z forces =    0.0000E+00    0.0000E+00    0.0000E+00  setid=       0
 node=     7 local x,y,z forces =    0.0000E+00    0.0000E+00    0.0000E+00  setid=       0
 node=     8 local x,y,z forces =    0.0000E+00    0.0000E+00    0.0000E+00  setid=       0
 node=     9 local x,y,z forces =    0.0000E+00    0.0000E+00    0.0000E+00  setid=       0
 node=    10 local x,y,z forces =    0.0000E+00    0.0000E+00    0.0000E+00  setid=       0
 node=    11 local x,y,z forces =    0.0000E+00    0.0000E+00    0.0000E+00  setid=       0
 node=    12 local x,y,z forces =    0.0000E+00    0.0000E+00    0.0000E+00  setid=       0
 node=    13 local x,y,z forces =    0.0000E+00    0.0000E+00    0.0000E+00  setid=       0
 node=    14 local x,y,z forces =    0.0000E+00    0.0000E+00    0.0000E+00  setid=       0
 node=    15 local x,y,z forces =    0.0000E+00    0.0000E+00    0.0000E+00  setid=       0
 node=    16 local x,y,z forces =    0.0000E+00    0.0000E+00    0.0000E+00  setid=       0
 node=    17 local x,y,z forces =    0.0000E+00    0.0000E+00    0.0000E+00  setid=       0
 node=    18 local x,y,z forces =    0.0000E+00    0.0000E+00    0.0000E+00  setid=       0
 node=    19 local x,y,z forces =    0.0000E+00    0.0000E+00    0.0000E+00  setid=       0
 node=    20 local x,y,z forces =    0.0000E+00    0.0000E+00    0.0000E+00  setid=       0
 node=    21 local x,y,z forces =    0.0000E+00    0.0000E+00    0.0000E+00  setid=       0
 node=    22 local x,y,z forces =    0.0000E+00    0.0000E+00    0.0000E+00  setid=       0
 node=    23 local x,y,z forces =    0.0000E+00    0.0000E+00    0.0000E+00  setid=       0
 node=    24 local x,y,z forces =    0.0000E+00    0.0000E+00    0.0000E+00  setid=       0
 node=    25 local x,y,z forces =    0.0000E+00    0.0000E+00    0.0000E+00  setid=       0
 node=    26 local x,y,z forces =    0.0000E+00    0.0000E+00    0.0000E+00  setid=       0
 node=    27 local x,y,z forces =    0.0000E+00    0.0000E+00    0.0000E+00  setid=       0
 node=    28 local x,y,z forces =    0.0000E+00    0.0000E+00    0.0000E+00  setid=       0
 node=    29 local x,y,z forces =    0.0000E+00    0.0000E+00    0.0000E+00  setid=       0
 node=    30 local x,y,z forces =    0.0000E+00    0.0000E+00    0.0000E+00  setid=       0
 node=    31 local x,y,z forces =    0.0000E+00    0.0000E+00    0.0000E+00  setid=       0
 node=    32 local x,y,z forces =    0.0000E+00    0.0000E+00    0.0000E+00  setid=       0
 node=    33 local x,y,z forces =    0.0000E+00    0.0000E+00    0.0000E+00  setid=       0
 node=    34 local x,y,z forces =    0.0000E+00    0.0000E+00    0.0000E+00  setid=       0
 node=    35 local x,y,z forces =    0.0000E+00    0.0000E+00    0.0000E+00  setid=       0
 node=    36 local x,y,z forces =    0.0000E+00    0.0000E+00    0.0000E+00  setid=       0
 node=    37 local x,y,z forces =    0.0000E+00    0.0000E+00    0.0000E+00  setid=       0
 node=    38 local x,y,z forces =    0.0000E+00    0.0000E+00    0.0000E+00  setid=       0
 node=    39 local x,y,z forces =    0.0000E+00    0.0000E+00    0.0000E+00  setid=       0
 node=    40 local x,y,z forces =    0.0000E+00    0.0000E+00    0.0000E+00  setid=       0
 node=    41 local x,y,z forces =    0.0000E+00    0.0000E+00    0.0000E+00  setid=       0
 node=    42 local x,y,z forces =    0.0000E+00    0.0000E+00    0.0000E+00  setid=       0
 node=    43 local x,y,z forces =    0.0000E+00    0.0000E+00    0.0000E+00  setid=       0
 node=    44 local x,y,z forces =    0.0000E+00    0.0000E+00    0.0000E+00  setid=       0
 node=    45 local x,y,z forces =    0.0000E+00    0.0000E+00    0.0000E+00  setid=       0
 node=    46 local x,y,z forces =    0.0000E+00    0.0000E+00    0.0000E+00  setid=       0
 node=    47 local x,y,z forces =    0.0000E+00    0.0000E+00    0.0000E+00  setid=       0
 node=    48 local x,y,z forces =    0.0000E+00    0.0000E+00    0.0000E+00  setid=       0
 node=    49 local x,y,z forces =    0.0000E+00    0.0000E+00    0.0000E+00  setid=       0
 node=    50 local x,y,z forces =    0.0000E+00    0.0000E+00    0.0000E+00  setid=       0
 node=    51 local x,y,z forces =    0.0000E+00    0.0000E+00    0.0000E+00  setid=       0
 node=    52 local x,y,z forces =    0.0000E+00    0.0000E+00    0.0000E+00  setid=       0
 node=    53 local x,y,z forces =    0.0000E+00    0.0000E+00    0.0000E+00  setid=       0
 node=    54 local x,y,z forces =    0.0000E+00    0.0000E+00    0.0000E+00  setid=       0
 node=    55 local x,y,z forces =    0.0000E+00    0.0000E+00    0.0000E+00  setid=       0
 node=    56 local x,y,z forces =    0.0000E+00    0.0000E+00    0.0000E+00  setid=       0
 node=    57 local x,y,z forces =    0.0000E+00    0.0000E+00    0.0000E+00  setid=       0
 node=    58 local x,y,z forces =    0.0000E+00    0.0000E+00    0.0000E+00  setid=       0
 node=    59 local x,y,z forces =    0.0000E+00    0.0000E+00    0.0000E+00  setid=       0
 node=    60 local x,y,z forces =    0.0000E+00    0.0000E+00    0.0000E+00  setid=       0
 node=    61 local x,y,z forces =    0.0000E+00    0.0000E+00    0.0000E+00  setid=       0
 node=    62 local x,y,z forces =    0.0000E+00    0.0000E+00    0.0000E+00  setid=       0
 node=    63 local x,y,z forces =    0.0000E+00    0.0000E+00    0.0000E+00  setid=       0
 node=    64 local x,y,z forces =    0.0000E+00    0.0000E+00    0.0000E+00  setid=       0
 node=    65 local x,y,z forces =    0.0000E+00    0.0000E+00    0.0000E+00  setid=       0
 node=    66 local x,y,z forces =    0.0000E+00    0.0000E+00    0.0000E+00  setid=       0
 node=    67 local x,y,z forces =    0.0000E+00    0.0000E+00    0.0000E+00  setid=       0
 node=    68 local x,y,z forces =    0.0000E+00    0.0000E+00    0.0000E+00  setid=       0
 node=    69 local x,y,z forces =    0.0000E+00    0.0000E+00    0.0000E+00  setid=       0
 node=    70 local x,y,z forces =    0.0000E+00    0.0000E+00    0.0000E+00  setid=       0
 node=    71 local x,y,z forces =    0.0000E+00    0.0000E+00    0.0000E+00  setid=       0
 node=    72 local x,y,z forces =    0.0000E+00    0.0000E+00    0.0000E+00  setid=       0
 node=    73 local x,y,z forces =    0.0000E+00    0.0000E+00    0.0000E+00  setid=       0
 node=    74 local x,y,z forces =    0.0000E+00    0.0000E+00    0.0000E+00  setid=       0
 node=    75 local x,y,z forces =    0.0000E+00    0.0000E+00    0.0000E+00  setid=       0
 node=    76 local x,y,z forces =    0.0000E+00    0.0000E+00    0.0000E+00  setid=       0
 node=    77 local x,y,z forces =    0.0000E+00    0.0000E+00    0.0000E+00  setid=       0
 node=    78 local x,y,z forces =    0.0000E+00    0.0000E+00    0.0000E+00  setid=       0
 node=    79 local x,y,z forces =    0.0000E+00    0.0000E+00    0.0000E+00  setid=       0
 node=    80 local x,y,z forces =    0.0000E+00    0.0000E+00    0.0000E+00  setid=       0
 node=    81 local x,y,z forces =    0.0000E+00    0.0000E+00    0.0000E+00  setid=       0
 node=    82 local x,y,z forces =    0.0000E+00    0.0000E+00    0.0000E+00  setid=       0
 node=    83 local x,y,z forces =    0.0000E+00    0.0000E+00    0.0000E+00  setid=       0
 node=    84 local x,y,z forces =    0.0000E+00    0.0000E+00    0.0000E+00  setid=       0
 node=    85 local x,y,z forces =    0.0000E+00    0.0000E+00    0.0000E+00  setid=       0
 node=    86 local x,y,z forces =    0.0000E+00    0.0000E+00    0.0000E+00  setid=       0
 node=    87 local x,y,z forces =    0.0000E+00    0.0000E+00    0.0000E+00  setid=       0
 node=    88 local x,y,z forces =    0.0000E+00    0.0000E+00    0.0000E+00  setid=       0
 node=    89 local x,y,z forces =    0.0000E+00    0.0000E+00    0.0000E+00  setid=       0
 node=    90 local x,y,z forces =    0.0000E+00    0.0000E+00    0.0000E+00  setid=       0
 node=    91 local x,y,z forces =    0.0000E+00    0.0000E+00    0.0000E+00  setid=       0
 node=  4554 local x,y,z forces =    0.0000E+00    0.0000E+00    0.0000E+00  setid=       0
 node=  4561 local x,y,z forces =    0.0000E+00    0.0000E+00    0.0000E+00  setid=       0
 node=  4568 local x,y,z forces =    0.0000E+00    0.0000E+00    0.0000E+00  setid=       0
 node=  4575 local x,y,z forces =    0.0000E+00    0.0000E+00    0.0000E+00  setid=       0
 node=  4582 local x,y,z forces =    0.0000E+00    0.0000E+00    0.0000E+00  setid=       0
 node=  4589 local x,y,z forces =    0.0000E+00    0.0000E+00    0.0000E+00  setid=       0
 node=  4596 local x,y,z forces =    0.0000E+00    0.0000E+00    0.0000E+00  setid=       0
 node=  4603 local x,y,z forces =    0.0000E+00    0.0000E+00    0.0000E+00  setid=       0
 node=  4610 local x,y,z forces =    0.0000E+00    0.0000E+00    0.0000E+00  setid=       0
 node=  4617 local x,y,z forces =    0.0000E+00    0.0000E+00    0.0000E+00  setid=       0
 node=  4624 local x,y,z forces =    0.0000E+00    0.0000E+00    0.0000E+00  setid=       0
 node=  4631 local x,y,z forces =    0.0000E+00    0.0000E+00    0.0000E+00  setid=       0
 node=  4638 local x,y,z forces =    0.0000E+00    0.0000E+00    0.0000E+00  setid=       0
             force resultants   =    0.0000E+00    0.0000E+00    0.0000E+00
 output at time =   5.00000E-04
 node=     1 local x,y,z forces =   -8.8655E+03   -1.1118E+04   -3.1354E+04  setid=       0
 node=     2 local x,y,z forces =   -5.3612E+03   -2.1162E+04   -5.3828E+04  setid=       0
 node=     3 local x,y,z forces =   -2.8247E+03   -2.0546E+04   -5.0870E+04  setid=       0
 node=     4 local x,y,z forces =   -1.5012E+01   -2.0776E+04   -5.2048E+04  setid=       0
 node=     5 local x,y,z forces =    2.7996E+03   -2.0578E+04   -5.0948E+04  setid=       0
 node=     6 local x,y,z forces =    5.3484E+03   -2.1225E+04   -5.3987E+04  setid=       0
 node=     7 local x,y,z forces =    8.8861E+03   -1.1159E+04   -3.1462E+04  setid=       0
 node=     8 local x,y,z forces =   -1.6507E+04   -6.6807E+03   -5.0507E+04  setid=       0
 node=     9 local x,y,z forces =   -1.0655E+04   -1.3420E+04   -8.3007E+04  setid=       0
 node=    10 local x,y,z forces =   -5.6203E+03   -1.3627E+04   -7.6700E+04  setid=       0
 node=    11 local x,y,z forces =   -2.3862E+01   -1.3760E+04   -7.8945E+04  setid=       0
 node=    12 local x,y,z forces =    5.5829E+03   -1.3648E+04   -7.6820E+04  setid=       0
 node=    13 local x,y,z forces =    1.0640E+04   -1.3462E+04   -8.3256E+04  setid=       0
 node=    14 local x,y,z forces =    1.6549E+04   -6.7082E+03   -5.0684E+04  setid=       0
 node=    15 local x,y,z forces =   -1.5597E+04   -6.0144E+03   -4.5205E+04  setid=       0
 node=    16 local x,y,z forces =   -1.0713E+04   -1.2027E+04   -7.2235E+04  setid=       0
 node=    17 local x,y,z forces =   -5.6933E+03   -1.2170E+04   -6.5789E+04  setid=       0
 node=    18 local x,y,z forces =   -1.6454E+01   -1.2302E+04   -6.8088E+04  setid=       0
 node=    19 local x,y,z forces =    5.6715E+03   -1.2189E+04   -6.5895E+04  setid=       0
 node=    20 local x,y,z forces =    1.0711E+04   -1.2066E+04   -7.2460E+04  setid=       0
 node=    21 local x,y,z forces =    1.5643E+04   -6.0396E+03   -4.5373E+04  setid=       0
 node=    22 local x,y,z forces =   -1.5645E+04   -3.6163E+03   -4.5695E+04  setid=       0
 node=    23 local x,y,z forces =   -1.0874E+04   -7.1565E+03   -7.3096E+04  setid=       0
 node=    24 local x,y,z forces =   -5.8592E+03   -7.1321E+03   -6.6706E+04  setid=       0
 node=    25 local x,y,z forces =   -1.3273E+01   -7.1756E+03   -6.9139E+04  setid=       0
 node=    26 local x,y,z forces =    5.8441E+03   -7.1434E+03   -6.6815E+04  setid=       0
 node=    27 local x,y,z forces =    1.0876E+04   -7.1800E+03   -7.3332E+04  setid=       0
 node=    28 local x,y,z forces =    1.5695E+04   -3.6318E+03   -4.5873E+04  setid=       0
 node=    29 local x,y,z forces =   -1.5612E+04   -2.5252E+03   -4.5076E+04  setid=       0
 node=    30 local x,y,z forces =   -1.0984E+04   -4.9887E+03   -7.1694E+04  setid=       0
 node=    31 local x,y,z forces =   -5.9722E+03   -4.9419E+03   -6.5229E+04  setid=       0
 node=    32 local x,y,z forces =   -1.1358E+01   -4.9512E+03   -6.7709E+04  setid=       0
 node=    33 local x,y,z forces =    5.9611E+03   -4.9499E+03   -6.5337E+04  setid=       0
 node=    34 local x,y,z forces =    1.0990E+04   -5.0050E+03   -7.1931E+04  setid=       0
 node=    35 local x,y,z forces =    1.5664E+04   -2.5358E+03   -4.5257E+04  setid=       0
 node=    36 local x,y,z forces =   -1.5650E+04   -1.1417E+03   -4.5301E+04  setid=       0
 node=    37 local x,y,z forces =   -1.1046E+04   -2.2458E+03   -7.2053E+04  setid=       0
 node=    38 local x,y,z forces =   -6.0326E+03   -2.2089E+03   -6.5547E+04  setid=       0
 node=    39 local x,y,z forces =   -1.0450E+01   -2.2076E+03   -6.8051E+04  setid=       0
 node=    40 local x,y,z forces =    6.0233E+03   -2.2126E+03   -6.5656E+04  setid=       0
 node=    41 local x,y,z forces =    1.1053E+04   -2.2532E+03   -7.2294E+04  setid=       0
 node=    42 local x,y,z forces =    1.5703E+04   -1.1465E+03   -4.5486E+04  setid=       0
 node=    43 local x,y,z forces =   -1.5643E+04    1.2733E-11   -4.5109E+04  setid=       0
 node=    44 local x,y,z forces =   -1.1065E+04    1.8190E-11   -7.1633E+04  setid=       0
 node=    45 local x,y,z forces =   -6.0509E+03    9.0949E-12   -6.5104E+04  setid=       0
 node=    46 local x,y,z forces =   -1.0147E+01    4.5475E-11   -6.7612E+04  setid=       0
 node=    47 local x,y,z forces =    6.0423E+03    3.6380E-11   -6.5213E+04  setid=       0
 node=    48 local x,y,z forces =    1.1072E+04    5.4570E-12   -7.1874E+04  setid=       0
 node=    49 local x,y,z forces =    1.5696E+04   -9.0949E-12   -4.5294E+04  setid=       0
 node=    50 local x,y,z forces =   -1.5650E+04    1.1417E+03   -4.5301E+04  setid=       0
 node=    51 local x,y,z forces =   -1.1046E+04    2.2458E+03   -7.2053E+04  setid=       0
 node=    52 local x,y,z forces =   -6.0326E+03    2.2089E+03   -6.5547E+04  setid=       0
 node=    53 local x,y,z forces =   -1.0450E+01    2.2076E+03   -6.8051E+04  setid=       0
 node=    54 local x,y,z forces =    6.0233E+03    2.2126E+03   -6.5656E+04  setid=       0
 node=    55 local x,y,z forces =    1.1053E+04    2.2532E+03   -7.2294E+04  setid=       0
 node=    56 local x,y,z forces =    1.5703E+04    1.1465E+03   -4.5486E+04  setid=       0
 node=    57 local x,y,z forces =   -1.5612E+04    2.5252E+03   -4.5076E+04  setid=       0
 node=    58 local x,y,z forces =   -1.0984E+04    4.9887E+03   -7.1694E+04  setid=       0
 node=    59 local x,y,z forces =   -5.9722E+03    4.9419E+03   -6.5229E+04  setid=       0
 node=    60 local x,y,z forces =   -1.1358E+01    4.9512E+03   -6.7709E+04  setid=       0
 node=    61 local x,y,z forces =    5.9611E+03    4.9499E+03   -6.5337E+04  setid=       0
 node=    62 local x,y,z forces =    1.0990E+04    5.0050E+03   -7.1931E+04  setid=       0
 node=    63 local x,y,z forces =    1.5664E+04    2.5358E+03   -4.5257E+04  setid=       0
 node=    64 local x,y,z forces =   -1.5645E+04    3.6163E+03   -4.5695E+04  setid=       0
 node=    65 local x,y,z forces =   -1.0874E+04    7.1565E+03   -7.3096E+04  setid=       0
 node=    66 local x,y,z forces =   -5.8592E+03    7.1321E+03   -6.6706E+04  setid=       0
 node=    67 local x,y,z forces =   -1.3273E+01    7.1756E+03   -6.9139E+04  setid=       0
 node=    68 local x,y,z forces =    5.8441E+03    7.1434E+03   -6.6815E+04  setid=       0
 node=    69 local x,y,z forces =    1.0876E+04    7.1800E+03   -7.3332E+04  setid=       0
 node=    70 local x,y,z forces =    1.5695E+04    3.6318E+03   -4.5873E+04  setid=       0
 node=    71 local x,y,z forces =   -1.5597E+04    6.0144E+03   -4.5205E+04  setid=       0
 node=    72 local x,y,z forces =   -1.0713E+04    1.2027E+04   -7.2235E+04  setid=       0
 node=    73 local x,y,z forces =   -5.6933E+03    1.2170E+04   -6.5789E+04  setid=       0
 node=    74 local x,y,z forces =   -1.6454E+01    1.2302E+04   -6.8088E+04  setid=       0
 node=    75 local x,y,z forces =    5.6715E+03    1.2189E+04   -6.5895E+04  setid=       0
 node=    76 local x,y,z forces =    1.0711E+04    1.2066E+04   -7.2460E+04  setid=       0
 node=    77 local x,y,z forces =    1.5643E+04    6.0396E+03   -4.5373E+04  setid=       0
 node=    78 local x,y,z forces =   -1.6507E+04    6.6807E+03   -5.0507E+04  setid=       0
 node=    79 local x,y,z forces =   -1.0655E+04    1.3420E+04   -8.3007E+04  setid=       0
 node=    80 local x,y,z forces =   -5.6203E+03    1.3627E+04   -7.6700E+04  setid=       0
 node=    81 local x,y,z forces =   -2.3862E+01    1.3760E+04   -7.8945E+04  setid=       0
 node=    82 local x,y,z forces =    5.5829E+03    1.3648E+04   -7.6820E+04  setid=       0
 node=    83 local x,y,z forces =    1.0640E+04    1.3462E+04   -8.3256E+04  setid=       0
 node=    84 local x,y,z forces =    1.6549E+04    6.7082E+03   -5.0684E+04  setid=       0
 node=    85 local x,y,z forces =   -8.8655E+03    1.1118E+04   -3.1354E+04  setid=       0
 node=    86 local x,y,z forces =   -5.3612E+03    2.1162E+04   -5.3828E+04  setid=       0
 node=    87 local x,y,z forces =   -2.8247E+03    2.0546E+04   -5.0870E+04  setid=       0
 node=    88 local x,y,z forces =   -1.5012E+01    2.0776E+04   -5.2048E+04  setid=       0
 node=    89 local x,y,z forces =    2.7996E+03    2.0578E+04   -5.0948E+04  setid=       0
 node=    90 local x,y,z forces =    5.3484E+03    2.1225E+04   -5.3987E+04  setid=       0
 node=    91 local x,y,z forces =    8.8861E+03    1.1159E+04   -3.1462E+04  setid=       0
 node=  4554 local x,y,z forces =   -3.5952E+00   -7.0605E+04    0.0000E+00  setid=       0
 node=  4561 local x,y,z forces =   -7.3927E+00   -4.8028E+04    0.0000E+00  setid=       0
 node=  4568 local x,y,z forces =   -8.1853E+00   -3.0804E+04    0.0000E+00  setid=       0
 node=  4575 local x,y,z forces =   -9.0848E+00   -1.8534E+04    0.0000E+00  setid=       0
 node=  4582 local x,y,z forces =   -9.8375E+00   -1.1794E+04    0.0000E+00  setid=       0
 node=  4589 local x,y,z forces =   -1.0322E+01   -5.1572E+03    0.0000E+00  setid=       0
 node=  4596 local x,y,z forces =   -1.0505E+01    8.2946E-10    0.0000E+00  setid=       0
 node=  4603 local x,y,z forces =   -1.0322E+01    5.1572E+03    0.0000E+00  setid=       0
 node=  4610 local x,y,z forces =   -9.8375E+00    1.1794E+04    0.0000E+00  setid=       0
 node=  4617 local x,y,z forces =   -9.0848E+00    1.8534E+04    0.0000E+00  setid=       0
 node=  4624 local x,y,z forces =   -8.1853E+00    3.0804E+04    0.0000E+00  setid=       0
 node=  4631 local x,y,z forces =   -7.3927E+00    4.8028E+04    0.0000E+00  setid=       0
 node=  4638 local x,y,z forces =   -3.5952E+00    7.0605E+04    0.0000E+00  setid=       0
             force resultants   =    7.3894E+00    1.1059E-09   -5.5653E+06
 output at time =   1.00000E-03
 node=     1 local x,y,z forces =   -1.7729E+04   -2.2231E+04   -6.2747E+04  setid=       0
 node=     2 local x,y,z forces =   -1.0723E+04   -4.2314E+04   -1.0772E+05  setid=       0
 node=     3 local x,y,z forces =   -5.6530E+03   -4.1086E+04   -1.0180E+05  setid=       0
 node=     4 local x,y,z forces =   -3.2871E+01   -4.1548E+04   -1.0416E+05  setid=       0
 node=     5 local x,y,z forces =    5.5981E+03   -4.1154E+04   -1.0197E+05  setid=       0
 node=     6 local x,y,z forces =    1.0695E+04   -4.2453E+04   -1.0806E+05  setid=       0
 node=     7 local x,y,z forces =    1.7774E+04   -2.2320E+04   -6.2983E+04  setid=       0
 node=     8 local x,y,z forces =   -3.3010E+04   -1.3356E+04   -1.0107E+05  setid=       0
 node=     9 local x,y,z forces =   -2.1310E+04   -2.6831E+04   -1.6608E+05  setid=       0
 node=    10 local x,y,z forces =   -1.1247E+04   -2.7246E+04   -1.5346E+05  setid=       0
 node=    11 local x,y,z forces =   -5.2242E+01   -2.7515E+04   -1.5797E+05  setid=       0
 node=    12 local x,y,z forces =    1.1165E+04   -2.7292E+04   -1.5372E+05  setid=       0
 node=    13 local x,y,z forces =    2.1277E+04   -2.6923E+04   -1.6662E+05  setid=       0
 node=    14 local x,y,z forces =    3.3101E+04   -1.3416E+04   -1.0145E+05  setid=       0
 node=    15 local x,y,z forces =   -3.1189E+04   -1.2029E+04   -9.0449E+04  setid=       0
 node=    16 local x,y,z forces =   -2.1426E+04   -2.4054E+04   -1.4451E+05  setid=       0
 node=    17 local x,y,z forces =   -1.1391E+04   -2.4341E+04   -1.3162E+05  setid=       0
 node=    18 local x,y,z forces =   -3.6011E+01   -2.4607E+04   -1.3623E+05  setid=       0
 node=    19 local x,y,z forces =    1.1343E+04   -2.4382E+04   -1.3185E+05  setid=       0
 node=    20 local x,y,z forces =    2.1420E+04   -2.4138E+04   -1.4501E+05  setid=       0
 node=    21 local x,y,z forces =    3.1288E+04   -1.2083E+04   -9.0815E+04  setid=       0
 node=    22 local x,y,z forces =   -3.1284E+04   -7.2320E+03   -9.1427E+04  setid=       0
 node=    23 local x,y,z forces =   -2.1746E+04   -1.4312E+04   -1.4624E+05  setid=       0
 node=    24 local x,y,z forces =   -1.1722E+04   -1.4263E+04   -1.3345E+05  setid=       0
 node=    25 local x,y,z forces =   -2.9031E+01   -1.4351E+04   -1.3833E+05  setid=       0
 node=    26 local x,y,z forces =    1.1689E+04   -1.4288E+04   -1.3369E+05  setid=       0
 node=    27 local x,y,z forces =    2.1752E+04   -1.4363E+04   -1.4675E+05  setid=       0
 node=    28 local x,y,z forces =    3.1392E+04   -7.2656E+03   -9.1815E+04  setid=       0
 node=    29 local x,y,z forces =   -3.1217E+04   -5.0506E+03   -9.0188E+04  setid=       0
 node=    30 local x,y,z forces =   -2.1966E+04   -9.9776E+03   -1.4343E+05  setid=       0
 node=    31 local x,y,z forces =   -1.1948E+04   -9.8843E+03   -1.3049E+05  setid=       0
 node=    32 local x,y,z forces =   -2.4817E+01   -9.9036E+03   -1.3547E+05  setid=       0
 node=    33 local x,y,z forces =    1.1923E+04   -9.9017E+03   -1.3073E+05  setid=       0
 node=    34 local x,y,z forces =    2.1979E+04   -1.0013E+04   -1.4394E+05  setid=       0
 node=    35 local x,y,z forces =    3.1330E+04   -5.0737E+03   -9.0582E+04  setid=       0
 node=    36 local x,y,z forces =   -3.1292E+04   -2.2832E+03   -9.0637E+04  setid=       0
 node=    37 local x,y,z forces =   -2.2090E+04   -4.4913E+03   -1.4415E+05  setid=       0
 node=    38 local x,y,z forces =   -1.2068E+04   -4.4178E+03   -1.3113E+05  setid=       0
 node=    39 local x,y,z forces =   -2.2821E+01   -4.4153E+03   -1.3615E+05  setid=       0
 node=    40 local x,y,z forces =    1.2048E+04   -4.4257E+03   -1.3137E+05  setid=       0
 node=    41 local x,y,z forces =    2.2105E+04   -4.5075E+03   -1.4467E+05  setid=       0
 node=    42 local x,y,z forces =    3.1408E+04   -2.2938E+03   -9.1040E+04  setid=       0
 node=    43 local x,y,z forces =   -3.1279E+04    3.6380E-12   -9.0254E+04  setid=       0
 node=    44 local x,y,z forces =   -2.2127E+04    1.8190E-11   -1.4330E+05  setid=       0
 node=    45 local x,y,z forces =   -1.2105E+04    7.2760E-12   -1.3024E+05  setid=       0
 node=    46 local x,y,z forces =   -2.2151E+01    3.6380E-12   -1.3527E+05  setid=       0
 node=    47 local x,y,z forces =    1.2086E+04    0.0000E+00   -1.3048E+05  setid=       0
 node=    48 local x,y,z forces =    2.2144E+04   -7.2760E-12   -1.4383E+05  setid=       0
 node=    49 local x,y,z forces =    3.1395E+04    0.0000E+00   -9.0657E+04  setid=       0
 node=    50 local x,y,z forces =   -3.1292E+04    2.2832E+03   -9.0637E+04  setid=       0
 node=    51 local x,y,z forces =   -2.2090E+04    4.4913E+03   -1.4415E+05  setid=       0
 node=    52 local x,y,z forces =   -1.2068E+04    4.4178E+03   -1.3113E+05  setid=       0
 node=    53 local x,y,z forces =   -2.2821E+01    4.4153E+03   -1.3615E+05  setid=       0
 node=    54 local x,y,z forces =    1.2048E+04    4.4257E+03   -1.3137E+05  setid=       0
 node=    55 local x,y,z forces =    2.2105E+04    4.5075E+03   -1.4467E+05  setid=       0
 node=    56 local x,y,z forces =    3.1408E+04    2.2938E+03   -9.1040E+04  setid=       0
 node=    57 local x,y,z forces =   -3.1217E+04    5.0506E+03   -9.0188E+04  setid=       0
 node=    58 local x,y,z forces =   -2.1966E+04    9.9776E+03   -1.4343E+05  setid=       0
 node=    59 local x,y,z forces =   -1.1948E+04    9.8843E+03   -1.3049E+05  setid=       0
 node=    60 local x,y,z forces =   -2.4817E+01    9.9036E+03   -1.3547E+05  setid=       0
 node=    61 local x,y,z forces =    1.1923E+04    9.9017E+03   -1.3073E+05  setid=       0
 node=    62 local x,y,z forces =    2.1979E+04    1.0013E+04   -1.4394E+05  setid=       0
 node=    63 local x,y,z forces =    3.1330E+04    5.0737E+03   -9.0582E+04  setid=       0
 node=    64 local x,y,z forces =   -3.1284E+04    7.2320E+03   -9.1427E+04  setid=       0
 node=    65 local x,y,z forces =   -2.1746E+04    1.4312E+04   -1.4624E+05  setid=       0
 node=    66 local x,y,z forces =   -1.1722E+04    1.4263E+04   -1.3345E+05  setid=       0
 node=    67 local x,y,z forces =   -2.9031E+01    1.4351E+04   -1.3833E+05  setid=       0
 node=    68 local x,y,z forces =    1.1689E+04    1.4288E+04   -1.3369E+05  setid=       0
 node=    69 local x,y,z forces =    2.1752E+04    1.4363E+04   -1.4675E+05  setid=       0
 node=    70 local x,y,z forces =    3.1392E+04    7.2656E+03   -9.1815E+04  setid=       0
 node=    71 local x,y,z forces =   -3.1189E+04    1.2029E+04   -9.0449E+04  setid=       0
 node=    72 local x,y,z forces =   -2.1426E+04    2.4054E+04   -1.4451E+05  setid=       0
 node=    73 local x,y,z forces =   -1.1391E+04    2.4341E+04   -1.3162E+05  setid=       0
 node=    74 local x,y,z forces =   -3.6011E+01    2.4607E+04   -1.3623E+05  setid=       0
 node=    75 local x,y,z forces =    1.1343E+04    2.4382E+04   -1.3185E+05  setid=       0
 node=    76 local x,y,z forces =    2.1420E+04    2.4138E+04   -1.4501E+05  setid=       0
 node=    77 local x,y,z forces =    3.1288E+04    1.2083E+04   -9.0815E+04  setid=       0
 node=    78 local x,y,z forces =   -3.3010E+04    1.3356E+04   -1.0107E+05  setid=       0
 node=    79 local x,y,z forces =   -2.1310E+04    2.6831E+04   -1.6608E+05  setid=       0
 node=    80 local x,y,z forces =   -1.1247E+04    2.7246E+04   -1.5346E+05  setid=       0
 node=    81 local x,y,z forces =   -5.2242E+01    2.7515E+04   -1.5797E+05  setid=       0
 node=    82 local x,y,z forces =    1.1165E+04    2.7292E+04   -1.5372E+05  setid=       0
 node=    83 local x,y,z forces =    2.1277E+04    2.6923E+04   -1.6662E+05  setid=       0
 node=    84 local x,y,z forces =    3.3101E+04    1.3416E+04   -1.0145E+05  setid=       0
 node=    85 local x,y,z forces =   -1.7729E+04    2.2231E+04   -6.2747E+04  setid=       0
 node=    86 local x,y,z forces =   -1.0723E+04    4.2314E+04   -1.0772E+05  setid=       0
 node=    87 local x,y,z forces =   -5.6530E+03    4.1086E+04   -1.0180E+05  setid=       0
 node=    88 local x,y,z forces =   -3.2871E+01    4.1548E+04   -1.0416E+05  setid=       0
 node=    89 local x,y,z forces =    5.5981E+03    4.1154E+04   -1.0197E+05  setid=       0
 node=    90 local x,y,z forces =    1.0695E+04    4.2453E+04   -1.0806E+05  setid=       0
 node=    91 local x,y,z forces =    1.7774E+04    2.2320E+04   -6.2983E+04  setid=       0
 node=  4554 local x,y,z forces =   -7.9472E+00   -1.4113E+05    0.0000E+00  setid=       0
 node=  4561 local x,y,z forces =   -1.6679E+01   -9.5929E+04    0.0000E+00  setid=       0
 node=  4568 local x,y,z forces =   -1.8540E+01   -6.1527E+04    0.0000E+00  setid=       0
 node=  4575 local x,y,z forces =   -2.0639E+01   -3.7020E+04    0.0000E+00  setid=       0
 node=  4582 local x,y,z forces =   -2.2390E+01   -2.3559E+04    0.0000E+00  setid=       0
 node=  4589 local x,y,z forces =   -2.3498E+01   -1.0301E+04    0.0000E+00  setid=       0
 node=  4596 local x,y,z forces =   -2.3922E+01    8.7311E-11    0.0000E+00  setid=       0
 node=  4603 local x,y,z forces =   -2.3498E+01    1.0301E+04    0.0000E+00  setid=       0
 node=  4610 local x,y,z forces =   -2.2390E+01    2.3559E+04    0.0000E+00  setid=       0
 node=  4617 local x,y,z forces =   -2.0639E+01    3.7020E+04    0.0000E+00  setid=       0
 node=  4624 local x,y,z forces =   -1.8540E+01    6.1527E+04    0.0000E+00  setid=       0
 node=  4631 local x,y,z forces =   -1.6679E+01    9.5929E+04    0.0000E+00  setid=       0
 node=  4638 local x,y,z forces =   -7.9472E+00    1.4113E+05    0.0000E+00  setid=       0
             force resultants   =    6.2467E+00   -1.5134E-09   -1.1136E+07
 output at time =   1.50000E-03
 node=     1 local x,y,z forces =   -2.6591E+04   -3.3338E+04   -9.4176E+04  setid=       0
 node=     2 local x,y,z forces =   -1.6085E+04   -6.3456E+04   -1.6166E+05  setid=       0
 node=     3 local x,y,z forces =   -8.4860E+03   -6.1617E+04   -1.5278E+05  setid=       0
 node=     4 local x,y,z forces =   -5.4662E+01   -6.2316E+04   -1.5635E+05  setid=       0
 node=     5 local x,y,z forces =    8.3947E+03   -6.1731E+04   -1.5307E+05  setid=       0
 node=     6 local x,y,z forces =    1.6039E+04   -6.3685E+04   -1.6223E+05  setid=       0
 node=     7 local x,y,z forces =    2.6665E+04   -3.3485E+04   -9.4566E+04  setid=       0
 node=     8 local x,y,z forces =   -4.9507E+04   -2.0025E+04   -1.5167E+05  setid=       0
 node=     9 local x,y,z forces =   -3.1965E+04   -4.0232E+04   -2.4922E+05  setid=       0
 node=    10 local x,y,z forces =   -1.6880E+04   -4.0858E+04   -2.3028E+05  setid=       0
 node=    11 local x,y,z forces =   -8.6867E+01   -4.1265E+04   -2.3707E+05  setid=       0
 node=    12 local x,y,z forces =    1.6744E+04   -4.0934E+04   -2.3072E+05  setid=       0
 node=    13 local x,y,z forces =    3.1911E+04   -4.0383E+04   -2.5012E+05  setid=       0
 node=    14 local x,y,z forces =    4.9657E+04   -2.0124E+04   -1.5231E+05  setid=       0
 node=    15 local x,y,z forces =   -4.6773E+04   -1.8041E+04   -1.3573E+05  setid=       0
 node=    16 local x,y,z forces =   -3.2137E+04   -3.6080E+04   -2.1683E+05  setid=       0
 node=    17 local x,y,z forces =   -1.7094E+04   -3.6514E+04   -1.9748E+05  setid=       0
 node=    18 local x,y,z forces =   -5.9859E+01   -3.6915E+04   -2.0442E+05  setid=       0
 node=    19 local x,y,z forces =    1.7015E+04   -3.6582E+04   -1.9786E+05  setid=       0
 node=    20 local x,y,z forces =    3.2128E+04   -3.6220E+04   -2.1764E+05  setid=       0
 node=    21 local x,y,z forces =    4.6937E+04   -1.8132E+04   -1.3633E+05  setid=       0
 node=    22 local x,y,z forces =   -4.6915E+04   -1.0846E+04   -1.3719E+05  setid=       0
 node=    23 local x,y,z forces =   -3.2616E+04   -2.1464E+04   -2.1941E+05  setid=       0
 node=    24 local x,y,z forces =   -1.7589E+04   -2.1393E+04   -2.0023E+05  setid=       0
 node=    25 local x,y,z forces =   -4.8228E+01   -2.1527E+04   -2.0757E+05  setid=       0
 node=    26 local x,y,z forces =    1.7535E+04   -2.1434E+04   -2.0062E+05  setid=       0
 node=    27 local x,y,z forces =    3.2626E+04   -2.1550E+04   -2.2026E+05  setid=       0
 node=    28 local x,y,z forces =    4.7093E+04   -1.0902E+04   -1.3783E+05  setid=       0
 node=    29 local x,y,z forces =   -4.6814E+04   -7.5757E+03   -1.3533E+05  setid=       0
 node=    30 local x,y,z forces =   -3.2946E+04   -1.4966E+04   -2.1519E+05  setid=       0
 node=    31 local x,y,z forces =   -1.7927E+04   -1.4827E+04   -1.9579E+05  setid=       0
 node=    32 local x,y,z forces =   -4.1181E+01   -1.4857E+04   -2.0327E+05  setid=       0
 node=    33 local x,y,z forces =    1.7887E+04   -1.4856E+04   -1.9617E+05  setid=       0
 node=    34 local x,y,z forces =    3.2967E+04   -1.5025E+04   -2.1605E+05  setid=       0
 node=    35 local x,y,z forces =    4.7000E+04   -7.6140E+03   -1.3598E+05  setid=       0
 node=    36 local x,y,z forces =   -4.6927E+04   -3.4246E+03   -1.3600E+05  setid=       0
 node=    37 local x,y,z forces =   -3.3131E+04   -6.7364E+03   -2.1627E+05  setid=       0
 node=    38 local x,y,z forces =   -1.8108E+04   -6.6263E+03   -1.9674E+05  setid=       0
 node=    39 local x,y,z forces =   -3.7845E+01   -6.6232E+03   -2.0430E+05  setid=       0
 node=    40 local x,y,z forces =    1.8074E+04   -6.6394E+03   -1.9713E+05  setid=       0
 node=    41 local x,y,z forces =    3.3158E+04   -6.7633E+03   -2.1714E+05  setid=       0
 node=    42 local x,y,z forces =    4.7118E+04   -3.4420E+03   -1.3667E+05  setid=       0
 node=    43 local x,y,z forces =   -4.6906E+04    3.6380E-11   -1.3543E+05  setid=       0
 node=    44 local x,y,z forces =   -3.3187E+04   -2.9104E-11   -2.1501E+05  setid=       0
 node=    45 local x,y,z forces =   -1.8162E+04   -1.4552E-11   -1.9541E+05  setid=       0
 node=    46 local x,y,z forces =   -3.6722E+01    7.2760E-12   -2.0298E+05  setid=       0
 node=    47 local x,y,z forces =    1.8131E+04   -3.6380E-11   -1.9580E+05  setid=       0
 node=    48 local x,y,z forces =    3.3215E+04   -5.8208E-11   -2.1588E+05  setid=       0
 node=    49 local x,y,z forces =    4.7099E+04   -3.6380E-11   -1.3609E+05  setid=       0
 node=    50 local x,y,z forces =   -4.6927E+04    3.4246E+03   -1.3600E+05  setid=       0
 node=    51 local x,y,z forces =   -3.3131E+04    6.7364E+03   -2.1627E+05  setid=       0
 node=    52 local x,y,z forces =   -1.8108E+04    6.6263E+03   -1.9674E+05  setid=       0
 node=    53 local x,y,z forces =   -3.7845E+01    6.6232E+03   -2.0430E+05  setid=       0
 node=    54 local x,y,z forces =    1.8074E+04    6.6394E+03   -1.9713E+05  setid=       0
 node=    55 local x,y,z forces =    3.3158E+04    6.7633E+03   -2.1714E+05  setid=       0
 node=    56 local x,y,z forces =    4.7118E+04    3.4420E+03   -1.3667E+05  setid=       0
 node=    57 local x,y,z forces =   -4.6814E+04    7.5757E+03   -1.3533E+05  setid=       0
 node=    58 local x,y,z forces =   -3.2946E+04    1.4966E+04   -2.1519E+05  setid=       0
 node=    59 local x,y,z forces =   -1.7927E+04    1.4827E+04   -1.9579E+05  setid=       0
 node=    60 local x,y,z forces =   -4.1181E+01    1.4857E+04   -2.0327E+05  setid=       0
 node=    61 local x,y,z forces =    1.7887E+04    1.4856E+04   -1.9617E+05  setid=       0
 node=    62 local x,y,z forces =    3.2967E+04    1.5025E+04   -2.1605E+05  setid=       0
 node=    63 local x,y,z forces =    4.7000E+04    7.6140E+03   -1.3598E+05  setid=       0
 node=    64 local x,y,z forces =   -4.6915E+04    1.0846E+04   -1.3719E+05  setid=       0
 node=    65 local x,y,z forces =   -3.2616E+04    2.1464E+04   -2.1941E+05  setid=       0
 node=    66 local x,y,z forces =   -1.7589E+04    2.1393E+04   -2.0023E+05  setid=       0
 node=    67 local x,y,z forces =   -4.8228E+01    2.1527E+04   -2.0757E+05  setid=       0
 node=    68 local x,y,z forces =    1.7535E+04    2.1434E+04   -2.0062E+05  setid=       0
 node=    69 local x,y,z forces =    3.2626E+04    2.1550E+04   -2.2026E+05  setid=       0
 node=    70 local x,y,z forces =    4.7093E+04    1.0902E+04   -1.3783E+05  setid=       0
 node=    71 local x,y,z forces =   -4.6773E+04    1.8041E+04   -1.3573E+05  setid=       0
 node=    72 local x,y,z forces =   -3.2137E+04    3.6080E+04   -2.1683E+05  setid=       0
 node=    73 local x,y,z forces =   -1.7094E+04    3.6514E+04   -1.9748E+05  setid=       0
 node=    74 local x,y,z forces =   -5.9859E+01    3.6915E+04   -2.0442E+05  setid=       0
 node=    75 local x,y,z forces =    1.7015E+04    3.6582E+04   -1.9786E+05  setid=       0
 node=    76 local x,y,z forces =    3.2128E+04    3.6220E+04   -2.1764E+05  setid=       0
 node=    77 local x,y,z forces =    4.6937E+04    1.8132E+04   -1.3633E+05  setid=       0
 node=    78 local x,y,z forces =   -4.9507E+04    2.0025E+04   -1.5167E+05  setid=       0
 node=    79 local x,y,z forces =   -3.1965E+04    4.0232E+04   -2.4922E+05  setid=       0
 node=    80 local x,y,z forces =   -1.6880E+04    4.0858E+04   -2.3028E+05  setid=       0
 node=    81 local x,y,z forces =   -8.6867E+01    4.1265E+04   -2.3707E+05  setid=       0
 node=    82 local x,y,z forces =    1.6744E+04    4.0934E+04   -2.3072E+05  setid=       0
 node=    83 local x,y,z forces =    3.1911E+04    4.0383E+04   -2.5012E+05  setid=       0
 node=    84 local x,y,z forces =    4.9657E+04    2.0124E+04   -1.5231E+05  setid=       0
 node=    85 local x,y,z forces =   -2.6591E+04    3.3338E+04   -9.4176E+04  setid=       0
 node=    86 local x,y,z forces =   -1.6085E+04    6.3456E+04   -1.6166E+05  setid=       0
 node=    87 local x,y,z forces =   -8.4860E+03    6.1617E+04   -1.5278E+05  setid=       0
 node=    88 local x,y,z forces =   -5.4662E+01    6.2316E+04   -1.5635E+05  setid=       0
 node=    89 local x,y,z forces =    8.3947E+03    6.1731E+04   -1.5307E+05  setid=       0
 node=    90 local x,y,z forces =    1.6039E+04    6.3685E+04   -1.6223E+05  setid=       0
 node=    91 local x,y,z forces =    2.6665E+04    3.3485E+04   -9.4566E+04  setid=       0
 node=  4554 local x,y,z forces =   -1.3362E+01   -2.1157E+05    0.0000E+00  setid=       0
 node=  4561 local x,y,z forces =   -2.8635E+01   -1.4370E+05    0.0000E+00  setid=       0
 node=  4568 local x,y,z forces =   -3.1954E+01   -9.2171E+04    0.0000E+00  setid=       0
 node=  4575 local x,y,z forces =   -3.5680E+01   -5.5458E+04    0.0000E+00  setid=       0
 node=  4582 local x,y,z forces =   -3.8781E+01   -3.5294E+04    0.0000E+00  setid=       0
 node=  4589 local x,y,z forces =   -4.0709E+01   -1.5430E+04    0.0000E+00  setid=       0
 node=  4596 local x,y,z forces =   -4.1459E+01    1.8917E-09    0.0000E+00  setid=       0
 node=  4603 local x,y,z forces =   -4.0709E+01    1.5430E+04    0.0000E+00  setid=       0
 node=  4610 local x,y,z forces =   -3.8781E+01    3.5294E+04    0.0000E+00  setid=       0
 node=  4617 local x,y,z forces =   -3.5680E+01    5.5458E+04    0.0000E+00  setid=       0
 node=  4624 local x,y,z forces =   -3.1954E+01    9.2171E+04    0.0000E+00  setid=       0
 node=  4631 local x,y,z forces =   -2.8635E+01    1.4370E+05    0.0000E+00  setid=       0
 node=  4638 local x,y,z forces =   -1.3362E+01    2.1157E+05    0.0000E+00  setid=       0
             force resultants   =   -7.6542E+00    5.5297E-10   -1.6712E+07
 output at time =   2.00000E-03
 node=     1 local x,y,z forces =   -3.5449E+04   -4.4437E+04   -1.2564E+05  setid=       0
 node=     2 local x,y,z forces =   -2.1448E+04   -8.4584E+04   -2.1566E+05  setid=       0
 node=     3 local x,y,z forces =   -1.1325E+04   -8.2137E+04   -2.0382E+05  setid=       0
 node=     4 local x,y,z forces =   -8.2071E+01   -8.3080E+04   -2.0860E+05  setid=       0
 node=     5 local x,y,z forces =    1.1188E+04   -8.2308E+04   -2.0424E+05  setid=       0
 node=     6 local x,y,z forces =    2.1380E+04   -8.4925E+04   -2.1651E+05  setid=       0
 node=     7 local x,y,z forces =    3.5559E+04   -4.4656E+04   -1.2622E+05  setid=       0
 node=     8 local x,y,z forces =   -6.5997E+04   -2.6686E+04   -2.0231E+05  setid=       0
 node=     9 local x,y,z forces =   -4.2622E+04   -5.3620E+04   -3.3241E+05  setid=       0
 node=    10 local x,y,z forces =   -2.2523E+04   -5.4461E+04   -3.0716E+05  setid=       0
 node=    11 local x,y,z forces =   -1.3041E+02   -5.5008E+04   -3.1625E+05  setid=       0
 node=    12 local x,y,z forces =    2.2319E+04   -5.4574E+04   -3.0781E+05  setid=       0
 node=    13 local x,y,z forces =    4.2542E+04   -5.3846E+04   -3.3374E+05  setid=       0
 node=    14 local x,y,z forces =    6.6221E+04   -2.6833E+04   -2.0326E+05  setid=       0
 node=    15 local x,y,z forces =   -6.2348E+04   -2.4052E+04   -1.8103E+05  setid=       0
 node=    16 local x,y,z forces =   -4.2847E+04   -4.8103E+04   -2.8917E+05  setid=       0
 node=    17 local x,y,z forces =   -2.2803E+04   -4.8686E+04   -2.6336E+05  setid=       0
 node=    18 local x,y,z forces =   -8.9838E+01   -4.9226E+04   -2.7266E+05  setid=       0
 node=    19 local x,y,z forces =    2.2684E+04   -4.8787E+04   -2.6393E+05  setid=       0
 node=    20 local x,y,z forces =    4.2835E+04   -4.8311E+04   -2.9038E+05  setid=       0
 node=    21 local x,y,z forces =    6.2592E+04   -2.4188E+04   -1.8193E+05  setid=       0
 node=    22 local x,y,z forces =   -6.2535E+04   -1.4459E+04   -1.8298E+05  setid=       0
 node=    23 local x,y,z forces =   -4.3484E+04   -2.8614E+04   -2.9261E+05  setid=       0
 node=    24 local x,y,z forces =   -2.3461E+04   -2.8522E+04   -2.6703E+05  setid=       0
 node=    25 local x,y,z forces =   -7.2337E+01   -2.8703E+04   -2.7687E+05  setid=       0
 node=    26 local x,y,z forces =    2.3379E+04   -2.8583E+04   -2.6762E+05  setid=       0
 node=    27 local x,y,z forces =    4.3500E+04   -2.8742E+04   -2.9388E+05  setid=       0
 node=    28 local x,y,z forces =    6.2801E+04   -1.4542E+04   -1.8393E+05  setid=       0
 node=    29 local x,y,z forces =   -6.2399E+04   -1.0100E+04   -1.8049E+05  setid=       0
 node=    30 local x,y,z forces =   -4.3923E+04   -1.9953E+04   -2.8698E+05  setid=       0
 node=    31 local x,y,z forces =   -2.3911E+04   -1.9769E+04   -2.6110E+05  setid=       0
 node=    32 local x,y,z forces =   -6.1695E+01   -1.9812E+04   -2.7113E+05  setid=       0
 node=    33 local x,y,z forces =    2.3850E+04   -1.9812E+04   -2.6168E+05  setid=       0
 node=    34 local x,y,z forces =    4.3955E+04   -2.0042E+04   -2.8825E+05  setid=       0
 node=    35 local x,y,z forces =    6.2678E+04   -1.0157E+04   -1.8146E+05  setid=       0
 node=    36 local x,y,z forces =   -6.2549E+04   -4.5654E+03   -1.8139E+05  setid=       0
 node=    37 local x,y,z forces =   -4.4170E+04   -8.9805E+03   -2.8841E+05  setid=       0
 node=    38 local x,y,z forces =   -2.4151E+04   -8.8344E+03   -2.6238E+05  setid=       0
 node=    39 local x,y,z forces =   -5.6663E+01   -8.8312E+03   -2.7250E+05  setid=       0
 node=    40 local x,y,z forces =    2.4101E+04   -8.8540E+03   -2.6297E+05  setid=       0
 node=    41 local x,y,z forces =    4.4210E+04   -9.0208E+03   -2.8971E+05  setid=       0
 node=    42 local x,y,z forces =    6.2835E+04   -4.5915E+03   -1.8238E+05  setid=       0
 node=    43 local x,y,z forces =   -6.2521E+04    2.1828E-11   -1.8062E+05  setid=       0
 node=    44 local x,y,z forces =   -4.4243E+04    5.8208E-11   -2.8673E+05  setid=       0
 node=    45 local x,y,z forces =   -2.4224E+04    8.7311E-11   -2.6060E+05  setid=       0
 node=    46 local x,y,z forces =   -5.4960E+01    4.3656E-11   -2.7073E+05  setid=       0
 node=    47 local x,y,z forces =    2.4177E+04   -1.4552E-11   -2.6118E+05  setid=       0
 node=    48 local x,y,z forces =    4.4286E+04    2.1828E-11   -2.8802E+05  setid=       0
 node=    49 local x,y,z forces =    6.2809E+04    2.9104E-11   -1.8161E+05  setid=       0
 node=    50 local x,y,z forces =   -6.2549E+04    4.5654E+03   -1.8139E+05  setid=       0
 node=    51 local x,y,z forces =   -4.4170E+04    8.9805E+03   -2.8841E+05  setid=       0
 node=    52 local x,y,z forces =   -2.4151E+04    8.8344E+03   -2.6238E+05  setid=       0
 node=    53 local x,y,z forces =   -5.6663E+01    8.8312E+03   -2.7250E+05  setid=       0
 node=    54 local x,y,z forces =    2.4101E+04    8.8540E+03   -2.6297E+05  setid=       0
 node=    55 local x,y,z forces =    4.4210E+04    9.0208E+03   -2.8971E+05  setid=       0
 node=    56 local x,y,z forces =    6.2835E+04    4.5915E+03   -1.8238E+05  setid=       0
 node=    57 local x,y,z forces =   -6.2399E+04    1.0100E+04   -1.8049E+05  setid=       0
 node=    58 local x,y,z forces =   -4.3923E+04    1.9953E+04   -2.8698E+05  setid=       0
 node=    59 local x,y,z forces =   -2.3911E+04    1.9769E+04   -2.6110E+05  setid=       0
 node=    60 local x,y,z forces =   -6.1695E+01    1.9812E+04   -2.7113E+05  setid=       0
 node=    61 local x,y,z forces =    2.3850E+04    1.9812E+04   -2.6168E+05  setid=       0
 node=    62 local x,y,z forces =    4.3955E+04    2.0042E+04   -2.8825E+05  setid=       0
 node=    63 local x,y,z forces =    6.2678E+04    1.0157E+04   -1.8146E+05  setid=       0
 node=    64 local x,y,z forces =   -6.2535E+04    1.4459E+04   -1.8298E+05  setid=       0
 node=    65 local x,y,z forces =   -4.3484E+04    2.8614E+04   -2.9261E+05  setid=       0
 node=    66 local x,y,z forces =   -2.3461E+04    2.8522E+04   -2.6703E+05  setid=       0
 node=    67 local x,y,z forces =   -7.2337E+01    2.8703E+04   -2.7687E+05  setid=       0
 node=    68 local x,y,z forces =    2.3379E+04    2.8583E+04   -2.6762E+05  setid=       0
 node=    69 local x,y,z forces =    4.3500E+04    2.8742E+04   -2.9388E+05  setid=       0
 node=    70 local x,y,z forces =    6.2801E+04    1.4542E+04   -1.8393E+05  setid=       0
 node=    71 local x,y,z forces =   -6.2348E+04    2.4052E+04   -1.8103E+05  setid=       0
 node=    72 local x,y,z forces =   -4.2847E+04    4.8103E+04   -2.8917E+05  setid=       0
 node=    73 local x,y,z forces =   -2.2803E+04    4.8686E+04   -2.6336E+05  setid=       0
 node=    74 local x,y,z forces =   -8.9838E+01    4.9226E+04   -2.7266E+05  setid=       0
 node=    75 local x,y,z forces =    2.2684E+04    4.8787E+04   -2.6393E+05  setid=       0
 node=    76 local x,y,z forces =    4.2835E+04    4.8311E+04   -2.9038E+05  setid=       0
 node=    77 local x,y,z forces =    6.2592E+04    2.4188E+04   -1.8193E+05  setid=       0
 node=    78 local x,y,z forces =   -6.5997E+04    2.6686E+04   -2.0231E+05  setid=       0
 node=    79 local x,y,z forces =   -4.2622E+04    5.3620E+04   -3.3241E+05  setid=       0
 node=    80 local x,y,z forces =   -2.2523E+04    5.4461E+04   -3.0716E+05  setid=       0
 node=    81 local x,y,z forces =   -1.3041E+02    5.5008E+04   -3.1625E+05  setid=       0
 node=    82 local x,y,z forces =    2.2319E+04    5.4574E+04   -3.0781E+05  setid=       0
 node=    83 local x,y,z forces =    4.2542E+04    5.3846E+04   -3.3374E+05  setid=       0
 node=    84 local x,y,z forces =    6.6221E+04    2.6833E+04   -2.0326E+05  setid=       0
 node=    85 local x,y,z forces =   -3.5449E+04    4.4437E+04   -1.2564E+05  setid=       0
 node=    86 local x,y,z forces =   -2.1448E+04    8.4584E+04   -2.1566E+05  setid=       0
 node=    87 local x,y,z forces =   -1.1325E+04    8.2137E+04   -2.0382E+05  setid=       0
 node=    88 local x,y,z forces =   -8.2071E+01    8.3080E+04   -2.0860E+05  setid=       0
 node=    89 local x,y,z forces =    1.1188E+04    8.2308E+04   -2.0424E+05  setid=       0
 node=    90 local x,y,z forces =    2.1380E+04    8.4925E+04   -2.1651E+05  setid=       0
 node=    91 local x,y,z forces =    3.5559E+04    4.4656E+04   -1.2622E+05  setid=       0
 node=  4554 local x,y,z forces =   -2.0386E+01   -2.8192E+05    0.0000E+00  setid=       0
 node=  4561 local x,y,z forces =   -4.4602E+01   -1.9135E+05    0.0000E+00  setid=       0
 node=  4568 local x,y,z forces =   -4.9958E+01   -1.2273E+05    0.0000E+00  setid=       0
 node=  4575 local x,y,z forces =   -5.5940E+01   -7.3849E+04    0.0000E+00  setid=       0
 node=  4582 local x,y,z forces =   -6.0906E+01   -4.7001E+04    0.0000E+00  setid=       0
 node=  4589 local x,y,z forces =   -6.3946E+01   -2.0546E+04    0.0000E+00  setid=       0
 node=  4596 local x,y,z forces =   -6.5145E+01    1.5134E-09    0.0000E+00  setid=       0
 node=  4603 local x,y,z forces =   -6.3946E+01    2.0546E+04    0.0000E+00  setid=       0
 node=  4610 local x,y,z forces =   -6.0906E+01    4.7001E+04    0.0000E+00  setid=       0
 node=  4617 local x,y,z forces =   -5.5940E+01    7.3849E+04    0.0000E+00  setid=       0
 node=  4624 local x,y,z forces =   -4.9958E+01    1.2273E+05    0.0000E+00  setid=       0
 node=  4631 local x,y,z forces =   -4.4602E+01    1.9135E+05    0.0000E+00  setid=       0
 node=  4638 local x,y,z forces =   -2.0386E+01    2.8192E+05    0.0000E+00  setid=       0
             force resultants   =   -4.2737E+01    1.2806E-09   -2.2293E+07
 output at time =   2.50000E-03
 node=     1 local x,y,z forces =   -4.4302E+04   -5.5524E+04   -1.5712E+05  setid=       0
 node=     2 local x,y,z forces =   -2.6814E+04   -1.0569E+05   -2.6968E+05  setid=       0
 node=     3 local x,y,z forces =   -1.4172E+04   -1.0265E+05   -2.5490E+05  setid=       0
 node=     4 local x,y,z forces =   -1.1781E+02   -1.0384E+05   -2.6092E+05  setid=       0
 node=     5 local x,y,z forces =    1.3976E+04   -1.0289E+05   -2.5551E+05  setid=       0
 node=     6 local x,y,z forces =    2.6716E+04   -1.0618E+05   -2.7090E+05  setid=       0
 node=     7 local x,y,z forces =    4.4459E+04   -5.5836E+04   -1.5795E+05  setid=       0
 node=     8 local x,y,z forces =   -8.2475E+04   -3.3336E+04   -2.5298E+05  setid=       0
 node=     9 local x,y,z forces =   -5.3281E+04   -6.6991E+04   -4.1562E+05  setid=       0
 node=    10 local x,y,z forces =   -2.8179E+04   -6.8053E+04   -3.8407E+05  setid=       0
 node=    11 local x,y,z forces =   -1.8720E+02   -6.8747E+04   -3.9550E+05  setid=       0
 node=    12 local x,y,z forces =    2.7886E+04   -6.8214E+04   -3.8500E+05  setid=       0
 node=    13 local x,y,z forces =    5.3168E+04   -6.7314E+04   -4.1753E+05  setid=       0
 node=    14 local x,y,z forces =    8.2794E+04   -3.3546E+04   -2.5433E+05  setid=       0
 node=    15 local x,y,z forces =   -7.7909E+04   -3.0058E+04   -2.2635E+05  setid=       0
 node=    16 local x,y,z forces =   -5.3555E+04   -6.0119E+04   -3.6152E+05  setid=       0
 node=    17 local x,y,z forces =   -2.8521E+04   -6.0856E+04   -3.2927E+05  setid=       0
 node=    18 local x,y,z forces =   -1.2892E+02   -6.1540E+04   -3.4095E+05  setid=       0
 node=    19 local x,y,z forces =    2.8350E+04   -6.1002E+04   -3.3009E+05  setid=       0
 node=    20 local x,y,z forces =    5.3540E+04   -6.0417E+04   -3.6325E+05  setid=       0
 node=    21 local x,y,z forces =    7.8257E+04   -3.0252E+04   -2.2763E+05  setid=       0
 node=    22 local x,y,z forces =   -7.8141E+04   -1.8068E+04   -2.2878E+05  setid=       0
 node=    23 local x,y,z forces =   -5.4350E+04   -3.5758E+04   -3.6581E+05  setid=       0
 node=    24 local x,y,z forces =   -2.9340E+04   -3.5647E+04   -3.3386E+05  setid=       0
 node=    25 local x,y,z forces =   -1.0374E+02   -3.5879E+04   -3.4622E+05  setid=       0
 node=    26 local x,y,z forces =    2.9223E+04   -3.5735E+04   -3.3469E+05  setid=       0
 node=    27 local x,y,z forces =    5.4374E+04   -3.5940E+04   -3.6762E+05  setid=       0
 node=    28 local x,y,z forces =    7.8520E+04   -1.8187E+04   -2.3014E+05  setid=       0
 node=    29 local x,y,z forces =   -7.7969E+04   -1.2623E+04   -2.2566E+05  setid=       0
 node=    30 local x,y,z forces =   -5.4897E+04   -2.4937E+04   -3.5876E+05  setid=       0
 node=    31 local x,y,z forces =   -2.9900E+04   -2.4710E+04   -3.2644E+05  setid=       0
 node=    32 local x,y,z forces =   -8.8373E+01   -2.4767E+04   -3.3903E+05  setid=       0
 node=    33 local x,y,z forces =    2.9814E+04   -2.4772E+04   -3.2726E+05  setid=       0
 node=    34 local x,y,z forces =    5.4944E+04   -2.5064E+04   -3.6058E+05  setid=       0
 node=    35 local x,y,z forces =    7.8366E+04   -1.2705E+04   -2.2705E+05  setid=       0
 node=    36 local x,y,z forces =   -7.8156E+04   -5.7054E+03   -2.2678E+05  setid=       0
 node=    37 local x,y,z forces =   -5.5204E+04   -1.1223E+04   -3.6056E+05  setid=       0
 node=    38 local x,y,z forces =   -3.0199E+04   -1.1042E+04   -3.2803E+05  setid=       0
 node=    39 local x,y,z forces =   -8.1111E+01   -1.1039E+04   -3.4074E+05  setid=       0
 node=    40 local x,y,z forces =    3.0128E+04   -1.1070E+04   -3.2887E+05  setid=       0
 node=    41 local x,y,z forces =    5.5263E+04   -1.1281E+04   -3.6241E+05  setid=       0
 node=    42 local x,y,z forces =    7.8564E+04   -5.7426E+03   -2.2820E+05  setid=       0
 node=    43 local x,y,z forces =   -7.8120E+04    0.0000E+00   -2.2582E+05  setid=       0
 node=    44 local x,y,z forces =   -5.5296E+04    1.4552E-11   -3.5845E+05  setid=       0
 node=    45 local x,y,z forces =   -3.0290E+04   -1.4552E-11   -3.2580E+05  setid=       0
 node=    46 local x,y,z forces =   -7.8642E+01   -2.9104E-11   -3.3853E+05  setid=       0
 node=    47 local x,y,z forces =    3.0223E+04   -2.9104E-11   -3.2664E+05  setid=       0
 node=    48 local x,y,z forces =    5.5359E+04    2.9104E-11   -3.6030E+05  setid=       0
 node=    49 local x,y,z forces =    7.8531E+04    0.0000E+00   -2.2723E+05  setid=       0
 node=    50 local x,y,z forces =   -7.8156E+04    5.7054E+03   -2.2678E+05  setid=       0
 node=    51 local x,y,z forces =   -5.5204E+04    1.1223E+04   -3.6056E+05  setid=       0
 node=    52 local x,y,z forces =   -3.0199E+04    1.1042E+04   -3.2803E+05  setid=       0
 node=    53 local x,y,z forces =   -8.1111E+01    1.1039E+04   -3.4074E+05  setid=       0
 node=    54 local x,y,z forces =    3.0128E+04    1.1070E+04   -3.2887E+05  setid=       0
 node=    55 local x,y,z forces =    5.5263E+04    1.1281E+04   -3.6241E+05  setid=       0
 node=    56 local x,y,z forces =    7.8564E+04    5.7426E+03   -2.2820E+05  setid=       0
 node=    57 local x,y,z forces =   -7.7969E+04    1.2623E+04   -2.2566E+05  setid=       0
 node=    58 local x,y,z forces =   -5.4897E+04    2.4937E+04   -3.5876E+05  setid=       0
 node=    59 local x,y,z forces =   -2.9900E+04    2.4710E+04   -3.2644E+05  setid=       0
 node=    60 local x,y,z forces =   -8.8373E+01    2.4767E+04   -3.3903E+05  setid=       0
 node=    61 local x,y,z forces =    2.9814E+04    2.4772E+04   -3.2726E+05  setid=       0
 node=    62 local x,y,z forces =    5.4944E+04    2.5064E+04   -3.6058E+05  setid=       0
 node=    63 local x,y,z forces =    7.8366E+04    1.2705E+04   -2.2705E+05  setid=       0
 node=    64 local x,y,z forces =   -7.8141E+04    1.8068E+04   -2.2878E+05  setid=       0
 node=    65 local x,y,z forces =   -5.4350E+04    3.5758E+04   -3.6581E+05  setid=       0
 node=    66 local x,y,z forces =   -2.9340E+04    3.5647E+04   -3.3386E+05  setid=       0
 node=    67 local x,y,z forces =   -1.0374E+02    3.5879E+04   -3.4622E+05  setid=       0
 node=    68 local x,y,z forces =    2.9223E+04    3.5735E+04   -3.3469E+05  setid=       0
 node=    69 local x,y,z forces =    5.4374E+04    3.5940E+04   -3.6762E+05  setid=       0
 node=    70 local x,y,z forces =    7.8520E+04    1.8187E+04   -2.3014E+05  setid=       0
 node=    71 local x,y,z forces =   -7.7909E+04    3.0058E+04   -2.2635E+05  setid=       0
 node=    72 local x,y,z forces =   -5.3555E+04    6.0119E+04   -3.6152E+05  setid=       0
 node=    73 local x,y,z forces =   -2.8521E+04    6.0856E+04   -3.2927E+05  setid=       0
 node=    74 local x,y,z forces =   -1.2892E+02    6.1540E+04   -3.4095E+05  setid=       0
 node=    75 local x,y,z forces =    2.8350E+04    6.1002E+04   -3.3009E+05  setid=       0
 node=    76 local x,y,z forces =    5.3540E+04    6.0417E+04   -3.6325E+05  setid=       0
 node=    77 local x,y,z forces =    7.8257E+04    3.0252E+04   -2.2763E+05  setid=       0
 node=    78 local x,y,z forces =   -8.2475E+04    3.3336E+04   -2.5298E+05  setid=       0
 node=    79 local x,y,z forces =   -5.3281E+04    6.6991E+04   -4.1562E+05  setid=       0
 node=    80 local x,y,z forces =   -2.8179E+04    6.8053E+04   -3.8407E+05  setid=       0
 node=    81 local x,y,z forces =   -1.8720E+02    6.8747E+04   -3.9550E+05  setid=       0
 node=    82 local x,y,z forces =    2.7886E+04    6.8214E+04   -3.8500E+05  setid=       0
 node=    83 local x,y,z forces =    5.3168E+04    6.7314E+04   -4.1753E+05  setid=       0
 node=    84 local x,y,z forces =    8.2794E+04    3.3546E+04   -2.5433E+05  setid=       0
 node=    85 local x,y,z forces =   -4.4302E+04    5.5524E+04   -1.5712E+05  setid=       0
 node=    86 local x,y,z forces =   -2.6814E+04    1.0569E+05   -2.6968E+05  setid=       0
 node=    87 local x,y,z forces =   -1.4172E+04    1.0265E+05   -2.5490E+05  setid=       0
 node=    88 local x,y,z forces =   -1.1781E+02    1.0384E+05   -2.6092E+05  setid=       0
 node=    89 local x,y,z forces =    1.3976E+04    1.0289E+05   -2.5551E+05  setid=       0
 node=    90 local x,y,z forces =    2.6716E+04    1.0618E+05   -2.7090E+05  setid=       0
 node=    91 local x,y,z forces =    4.4459E+04    5.5836E+04   -1.5795E+05  setid=       0
 node=  4554 local x,y,z forces =   -3.0024E+01   -3.5219E+05    0.0000E+00  setid=       0
 node=  4561 local x,y,z forces =   -6.6991E+01   -2.3887E+05    0.0000E+00  setid=       0
 node=  4568 local x,y,z forces =   -7.5260E+01   -1.5322E+05    0.0000E+00  setid=       0
 node=  4575 local x,y,z forces =   -8.4458E+01   -9.2191E+04    0.0000E+00  setid=       0
 node=  4582 local x,y,z forces =   -9.2074E+01   -5.8678E+04    0.0000E+00  setid=       0
 node=  4589 local x,y,z forces =   -9.6667E+01   -2.5647E+04    0.0000E+00  setid=       0
 node=  4596 local x,y,z forces =   -9.8504E+01    1.1059E-09    0.0000E+00  setid=       0
 node=  4603 local x,y,z forces =   -9.6667E+01    2.5647E+04    0.0000E+00  setid=       0
 node=  4610 local x,y,z forces =   -9.2074E+01    5.8678E+04    0.0000E+00  setid=       0
 node=  4617 local x,y,z forces =   -8.4458E+01    9.2191E+04    0.0000E+00  setid=       0
 node=  4624 local x,y,z forces =   -7.5260E+01    1.5322E+05    0.0000E+00  setid=       0
 node=  4631 local x,y,z forces =   -6.6991E+01    2.3887E+05    0.0000E+00  setid=       0
 node=  4638 local x,y,z forces =   -3.0024E+01    3.5219E+05    0.0000E+00  setid=       0
             force resultants   =   -1.1565E+02    1.1642E-10   -2.7880E+07
 output at time =   3.00000E-03
 node=     1 local x,y,z forces =   -5.3146E+04   -6.6593E+04   -1.8860E+05  setid=       0
 node=     2 local x,y,z forces =   -3.2183E+04   -1.2677E+05   -3.2372E+05  setid=       0
 node=     3 local x,y,z forces =   -1.7032E+04   -1.2314E+05   -3.0602E+05  setid=       0
 node=     4 local x,y,z forces =   -1.6650E+02   -1.2459E+05   -3.1331E+05  setid=       0
 node=     5 local x,y,z forces =    1.6754E+04   -1.2348E+05   -3.0687E+05  setid=       0
 node=     6 local x,y,z forces =    3.2047E+04   -1.2745E+05   -3.2544E+05  setid=       0
 node=     7 local x,y,z forces =    5.3367E+04   -6.7031E+04   -1.8977E+05  setid=       0
 node=     8 local x,y,z forces =   -9.8935E+04   -3.9973E+04   -3.0364E+05  setid=       0
 node=     9 local x,y,z forces =   -6.3944E+04   -8.0341E+04   -4.9882E+05  setid=       0
 node=    10 local x,y,z forces =   -3.3853E+04   -8.1631E+04   -4.6101E+05  setid=       0
 node=    11 local x,y,z forces =   -2.6455E+02   -8.2479E+04   -4.7484E+05  setid=       0
 node=    12 local x,y,z forces =    3.3439E+04   -8.1858E+04   -4.6232E+05  setid=       0
 node=    13 local x,y,z forces =    6.3786E+04   -8.0794E+04   -5.0150E+05  setid=       0
 node=    14 local x,y,z forces =    9.9383E+04   -4.0267E+04   -3.0554E+05  setid=       0
 node=    15 local x,y,z forces =   -9.3449E+04   -3.6055E+04   -2.7165E+05  setid=       0
 node=    16 local x,y,z forces =   -6.4263E+04   -7.2122E+04   -4.3384E+05  setid=       0
 node=    17 local x,y,z forces =   -3.4250E+04   -7.3022E+04   -3.9518E+05  setid=       0
 node=    18 local x,y,z forces =   -1.8214E+02   -7.3858E+04   -4.0930E+05  setid=       0
 node=    19 local x,y,z forces =    3.4009E+04   -7.3226E+04   -3.9633E+05  setid=       0
 node=    20 local x,y,z forces =    6.4243E+04   -7.2542E+04   -4.3627E+05  setid=       0
 node=    21 local x,y,z forces =    9.3938E+04   -3.6328E+04   -2.7344E+05  setid=       0
 node=    22 local x,y,z forces =   -9.3724E+04   -2.1671E+04   -2.7456E+05  setid=       0
 node=    23 local x,y,z forces =   -6.5212E+04   -4.2893E+04   -4.3899E+05  setid=       0
 node=    24 local x,y,z forces =   -3.5228E+04   -4.2768E+04   -4.0068E+05  setid=       0
 node=    25 local x,y,z forces =   -1.4647E+02   -4.3055E+04   -4.1562E+05  setid=       0
 node=    26 local x,y,z forces =    3.5061E+04   -4.2892E+04   -4.0186E+05  setid=       0
 node=    27 local x,y,z forces =    6.5248E+04   -4.3150E+04   -4.4152E+05  setid=       0
 node=    28 local x,y,z forces =    9.4257E+04   -2.1838E+04   -2.7646E+05  setid=       0
 node=    29 local x,y,z forces =   -9.3516E+04   -1.5142E+04   -2.7081E+05  setid=       0
 node=    30 local x,y,z forces =   -6.5866E+04   -2.9917E+04   -4.3051E+05  setid=       0
 node=    31 local x,y,z forces =   -3.5896E+04   -2.9650E+04   -3.9177E+05  setid=       0
 node=    32 local x,y,z forces =   -1.2462E+02   -2.9724E+04   -4.0698E+05  setid=       0
 node=    33 local x,y,z forces =    3.5774E+04   -2.9737E+04   -3.9293E+05  setid=       0
 node=    34 local x,y,z forces =    6.5935E+04   -3.0095E+04   -4.3307E+05  setid=       0
 node=    35 local x,y,z forces =    9.4074E+04   -1.5257E+04   -2.7275E+05  setid=       0
 node=    36 local x,y,z forces =   -9.3738E+04   -6.8437E+03   -2.7215E+05  setid=       0
 node=    37 local x,y,z forces =   -6.6233E+04   -1.3463E+04   -4.3266E+05  setid=       0
 node=    38 local x,y,z forces =   -3.6253E+04   -1.3248E+04   -3.9368E+05  setid=       0
 node=    39 local x,y,z forces =   -1.1430E+02   -1.3248E+04   -4.0904E+05  setid=       0
 node=    40 local x,y,z forces =    3.6153E+04   -1.3287E+04   -3.9486E+05  setid=       0
 node=    41 local x,y,z forces =    6.6318E+04   -1.3544E+04   -4.3526E+05  setid=       0
 node=    42 local x,y,z forces =    9.4312E+04   -6.8961E+03   -2.7414E+05  setid=       0
 node=    43 local x,y,z forces =   -9.3696E+04   -2.9104E-11   -2.7100E+05  setid=       0
 node=    44 local x,y,z forces =   -6.6343E+04   -1.4552E-11   -4.3013E+05  setid=       0
 node=    45 local x,y,z forces =   -3.6362E+04    4.3656E-11   -3.9100E+05  setid=       0
 node=    46 local x,y,z forces =   -1.1078E+02   -8.7311E-11   -4.0638E+05  setid=       0
 node=    47 local x,y,z forces =    3.6268E+04   -1.1642E-10   -3.9218E+05  setid=       0
 node=    48 local x,y,z forces =    6.6434E+04    2.9104E-11   -4.3273E+05  setid=       0
 node=    49 local x,y,z forces =    9.4273E+04    1.4552E-11   -2.7298E+05  setid=       0
 node=    50 local x,y,z forces =   -9.3738E+04    6.8437E+03   -2.7215E+05  setid=       0
 node=    51 local x,y,z forces =   -6.6233E+04    1.3463E+04   -4.3266E+05  setid=       0
 node=    52 local x,y,z forces =   -3.6253E+04    1.3248E+04   -3.9368E+05  setid=       0
 node=    53 local x,y,z forces =   -1.1430E+02    1.3248E+04   -4.0904E+05  setid=       0
 node=    54 local x,y,z forces =    3.6153E+04    1.3287E+04   -3.9486E+05  setid=       0
 node=    55 local x,y,z forces =    6.6318E+04    1.3544E+04   -4.3526E+05  setid=       0
 node=    56 local x,y,z forces =    9.4312E+04    6.8961E+03   -2.7414E+05  setid=       0
 node=    57 local x,y,z forces =   -9.3516E+04    1.5142E+04   -2.7081E+05  setid=       0
 node=    58 local x,y,z forces =   -6.5866E+04    2.9917E+04   -4.3051E+05  setid=       0
 node=    59 local x,y,z forces =   -3.5896E+04    2.9650E+04   -3.9177E+05  setid=       0
 node=    60 local x,y,z forces =   -1.2462E+02    2.9724E+04   -4.0698E+05  setid=       0
 node=    61 local x,y,z forces =    3.5774E+04    2.9737E+04   -3.9293E+05  setid=       0
 node=    62 local x,y,z forces =    6.5935E+04    3.0095E+04   -4.3307E+05  setid=       0
 node=    63 local x,y,z forces =    9.4074E+04    1.5257E+04   -2.7275E+05  setid=       0
 node=    64 local x,y,z forces =   -9.3724E+04    2.1671E+04   -2.7456E+05  setid=       0
 node=    65 local x,y,z forces =   -6.5212E+04    4.2893E+04   -4.3899E+05  setid=       0
 node=    66 local x,y,z forces =   -3.5228E+04    4.2768E+04   -4.0068E+05  setid=       0
 node=    67 local x,y,z forces =   -1.4647E+02    4.3055E+04   -4.1562E+05  setid=       0
 node=    68 local x,y,z forces =    3.5061E+04    4.2892E+04   -4.0186E+05  setid=       0
 node=    69 local x,y,z forces =    6.5248E+04    4.3150E+04   -4.4152E+05  setid=       0
 node=    70 local x,y,z forces =    9.4257E+04    2.1838E+04   -2.7646E+05  setid=       0
 node=    71 local x,y,z forces =   -9.3449E+04    3.6055E+04   -2.7165E+05  setid=       0
 node=    72 local x,y,z forces =   -6.4263E+04    7.2122E+04   -4.3384E+05  setid=       0
 node=    73 local x,y,z forces =   -3.4250E+04    7.3022E+04   -3.9518E+05  setid=       0
 node=    74 local x,y,z forces =   -1.8214E+02    7.3858E+04   -4.0930E+05  setid=       0
 node=    75 local x,y,z forces =    3.4009E+04    7.3226E+04   -3.9633E+05  setid=       0
 node=    76 local x,y,z forces =    6.4243E+04    7.2542E+04   -4.3627E+05  setid=       0
 node=    77 local x,y,z forces =    9.3938E+04    3.6328E+04   -2.7344E+05  setid=       0
 node=    78 local x,y,z forces =   -9.8935E+04    3.9973E+04   -3.0364E+05  setid=       0
 node=    79 local x,y,z forces =   -6.3944E+04    8.0341E+04   -4.9882E+05  setid=       0
 node=    80 local x,y,z forces =   -3.3853E+04    8.1631E+04   -4.6101E+05  setid=       0
 node=    81 local x,y,z forces =   -2.6455E+02    8.2479E+04   -4.7484E+05  setid=       0
 node=    82 local x,y,z forces =    3.3439E+04    8.1858E+04   -4.6232E+05  setid=       0
 node=    83 local x,y,z forces =    6.3786E+04    8.0794E+04   -5.0150E+05  setid=       0
 node=    84 local x,y,z forces =    9.9383E+04    4.0267E+04   -3.0554E+05  setid=       0
 node=    85 local x,y,z forces =   -5.3146E+04    6.6593E+04   -1.8860E+05  setid=       0
 node=    86 local x,y,z forces =   -3.2183E+04    1.2677E+05   -3.2372E+05  setid=       0
 node=    87 local x,y,z forces =   -1.7032E+04    1.2314E+05   -3.0602E+05  setid=       0
 node=    88 local x,y,z forces =   -1.6650E+02    1.2459E+05   -3.1331E+05  setid=       0
 node=    89 local x,y,z forces =    1.6754E+04    1.2348E+05   -3.0687E+05  setid=       0
 node=    90 local x,y,z forces =    3.2047E+04    1.2745E+05   -3.2544E+05  setid=       0
 node=    91 local x,y,z forces =    5.3367E+04    6.7031E+04   -1.8977E+05  setid=       0
 node=  4554 local x,y,z forces =   -4.4198E+01   -4.2238E+05    0.0000E+00  setid=       0
 node=  4561 local x,y,z forces =   -1.0031E+02   -2.8626E+05    0.0000E+00  setid=       0
 node=  4568 local x,y,z forces =   -1.1288E+02   -1.8362E+05    0.0000E+00  setid=       0
 node=  4575 local x,y,z forces =   -1.2682E+02   -1.1049E+05    0.0000E+00  setid=       0
 node=  4582 local x,y,z forces =   -1.3833E+02   -7.0326E+04    0.0000E+00  setid=       0
 node=  4589 local x,y,z forces =   -1.4518E+02   -3.0735E+04    0.0000E+00  setid=       0
 node=  4596 local x,y,z forces =   -1.4795E+02    7.5670E-10    0.0000E+00  setid=       0
 node=  4603 local x,y,z forces =   -1.4518E+02    3.0735E+04    0.0000E+00  setid=       0
 node=  4610 local x,y,z forces =   -1.3833E+02    7.0326E+04    0.0000E+00  setid=       0
 node=  4617 local x,y,z forces =   -1.2682E+02    1.1049E+05    0.0000E+00  setid=       0
 node=  4624 local x,y,z forces =   -1.1288E+02    1.8362E+05    0.0000E+00  setid=       0
 node=  4631 local x,y,z forces =   -1.0031E+02    2.8626E+05    0.0000E+00  setid=       0
 node=  4638 local x,y,z forces =   -4.4198E+01    4.2238E+05    0.0000E+00  setid=       0
             force resultants   =   -2.6007E+02    1.2806E-09   -3.3472E+07
 output at time =   3.50000E-03
 node=     1 local x,y,z forces =   -6.1977E+04   -7.7634E+04   -2.2007E+05  setid=       0
 node=     2 local x,y,z forces =   -3.7560E+04   -1.4780E+05   -3.7773E+05  setid=       0
 node=     3 local x,y,z forces =   -1.9910E+04   -1.4360E+05   -3.5714E+05  setid=       0
 node=     4 local x,y,z forces =   -2.3633E+02   -1.4534E+05   -3.6577E+05  setid=       0
 node=     5 local x,y,z forces =    1.9516E+04   -1.4409E+05   -3.5836E+05  setid=       0
 node=     6 local x,y,z forces =    3.7369E+04   -1.4877E+05   -3.8015E+05  setid=       0
 node=     7 local x,y,z forces =    6.2289E+04   -7.8251E+04   -2.2171E+05  setid=       0
 node=     8 local x,y,z forces =   -1.1537E+05   -4.6589E+04   -3.5426E+05  setid=       0
 node=     9 local x,y,z forces =   -7.4615E+04   -9.3657E+04   -5.8195E+05  setid=       0
 node=    10 local x,y,z forces =   -3.9556E+04   -9.5190E+04   -5.3794E+05  setid=       0
 node=    11 local x,y,z forces =   -3.7551E+02   -9.6206E+04   -5.5425E+05  setid=       0
 node=    12 local x,y,z forces =    3.8968E+04   -9.5509E+04   -5.3979E+05  setid=       0
 node=    13 local x,y,z forces =    7.4395E+04   -9.4296E+04   -5.8574E+05  setid=       0
 node=    14 local x,y,z forces =    1.1600E+05   -4.7003E+04   -3.5693E+05  setid=       0
 node=    15 local x,y,z forces =   -1.0896E+05   -4.2038E+04   -3.1690E+05  setid=       0
 node=    16 local x,y,z forces =   -7.4971E+04   -8.4103E+04   -5.0608E+05  setid=       0
 node=    17 local x,y,z forces =   -3.9997E+04   -8.5179E+04   -4.6107E+05  setid=       0
 node=    18 local x,y,z forces =   -2.5847E+02   -8.6178E+04   -4.7769E+05  setid=       0
 node=    19 local x,y,z forces =    3.9654E+04   -8.5467E+04   -4.6269E+05  setid=       0
 node=    20 local x,y,z forces =    7.4944E+04   -8.4696E+04   -5.0950E+05  setid=       0
 node=    21 local x,y,z forces =    1.0965E+05   -4.2422E+04   -3.1942E+05  setid=       0
 node=    22 local x,y,z forces =   -1.0927E+05   -2.5265E+04   -3.2028E+05  setid=       0
 node=    23 local x,y,z forces =   -7.6070E+04   -5.0012E+04   -5.1207E+05  setid=       0
 node=    24 local x,y,z forces =   -4.1128E+04   -4.9882E+04   -4.6749E+05  setid=       0
 node=    25 local x,y,z forces =   -2.0771E+02   -5.0231E+04   -4.8507E+05  setid=       0
 node=    26 local x,y,z forces =    4.0892E+04   -5.0056E+04   -4.6915E+05  setid=       0
 node=    27 local x,y,z forces =    7.6123E+04   -5.0376E+04   -5.1565E+05  setid=       0
 node=    28 local x,y,z forces =    1.1002E+05   -2.5501E+04   -3.2296E+05  setid=       0
 node=    29 local x,y,z forces =   -1.0903E+05   -1.7655E+04   -3.1590E+05  setid=       0
 node=    30 local x,y,z forces =   -7.6828E+04   -3.4886E+04   -5.0217E+05  setid=       0
 node=    31 local x,y,z forces =   -4.1902E+04   -3.4584E+04   -4.5707E+05  setid=       0
 node=    32 local x,y,z forces =   -1.7651E+02   -3.4682E+04   -4.7497E+05  setid=       0
 node=    33 local x,y,z forces =    4.1730E+04   -3.4708E+04   -4.5872E+05  setid=       0
 node=    34 local x,y,z forces =    7.6929E+04   -3.5139E+04   -5.0577E+05  setid=       0
 node=    35 local x,y,z forces =    1.0981E+05   -1.7818E+04   -3.1863E+05  setid=       0
 node=    36 local x,y,z forces =   -1.0928E+05   -7.9791E+03   -3.1746E+05  setid=       0
 node=    37 local x,y,z forces =   -7.7255E+04   -1.5698E+04   -5.0467E+05  setid=       0
 node=    38 local x,y,z forces =   -4.2316E+04   -1.5451E+04   -4.5930E+05  setid=       0
 node=    39 local x,y,z forces =   -1.6179E+02   -1.5456E+04   -4.7738E+05  setid=       0
 node=    40 local x,y,z forces =    4.2174E+04   -1.5507E+04   -4.6097E+05  setid=       0
 node=    41 local x,y,z forces =    7.7378E+04   -1.5813E+04   -5.0834E+05  setid=       0
 node=    42 local x,y,z forces =    1.1009E+05   -8.0531E+03   -3.2025E+05  setid=       0
 node=    43 local x,y,z forces =   -1.0923E+05   -1.4552E-11   -3.1610E+05  setid=       0
 node=    44 local x,y,z forces =   -7.7382E+04    2.9104E-11   -5.0171E+05  setid=       0
 node=    45 local x,y,z forces =   -4.2441E+04    2.9104E-11   -4.5618E+05  setid=       0
 node=    46 local x,y,z forces =   -1.5674E+02    7.2760E-11   -4.7428E+05  setid=       0
 node=    47 local x,y,z forces =    4.2310E+04   -1.4552E-11   -4.5784E+05  setid=       0
 node=    48 local x,y,z forces =    7.7514E+04   -8.7311E-11   -5.0538E+05  setid=       0
 node=    49 local x,y,z forces =    1.1005E+05   -1.4552E-11   -3.1890E+05  setid=       0
 node=    50 local x,y,z forces =   -1.0928E+05    7.9791E+03   -3.1746E+05  setid=       0
 node=    51 local x,y,z forces =   -7.7255E+04    1.5698E+04   -5.0467E+05  setid=       0
 node=    52 local x,y,z forces =   -4.2316E+04    1.5451E+04   -4.5930E+05  setid=       0
 node=    53 local x,y,z forces =   -1.6179E+02    1.5456E+04   -4.7738E+05  setid=       0
 node=    54 local x,y,z forces =    4.2174E+04    1.5507E+04   -4.6097E+05  setid=       0
 node=    55 local x,y,z forces =    7.7378E+04    1.5813E+04   -5.0834E+05  setid=       0
 node=    56 local x,y,z forces =    1.1009E+05    8.0531E+03   -3.2025E+05  setid=       0
 node=    57 local x,y,z forces =   -1.0903E+05    1.7655E+04   -3.1590E+05  setid=       0
 node=    58 local x,y,z forces =   -7.6828E+04    3.4886E+04   -5.0217E+05  setid=       0
 node=    59 local x,y,z forces =   -4.1902E+04    3.4584E+04   -4.5707E+05  setid=       0
 node=    60 local x,y,z forces =   -1.7651E+02    3.4682E+04   -4.7497E+05  setid=       0
 node=    61 local x,y,z forces =    4.1730E+04    3.4708E+04   -4.5872E+05  setid=       0
 node=    62 local x,y,z forces =    7.6929E+04    3.5139E+04   -5.0577E+05  setid=       0
 node=    63 local x,y,z forces =    1.0981E+05    1.7818E+04   -3.1863E+05  setid=       0
 node=    64 local x,y,z forces =   -1.0927E+05    2.5265E+04   -3.2028E+05  setid=       0
 node=    65 local x,y,z forces =   -7.6070E+04    5.0012E+04   -5.1207E+05  setid=       0
 node=    66 local x,y,z forces =   -4.1128E+04    4.9882E+04   -4.6749E+05  setid=       0
 node=    67 local x,y,z forces =   -2.0771E+02    5.0231E+04   -4.8507E+05  setid=       0
 node=    68 local x,y,z forces =    4.0892E+04    5.0056E+04   -4.6915E+05  setid=       0
 node=    69 local x,y,z forces =    7.6123E+04    5.0376E+04   -5.1565E+05  setid=       0
 node=    70 local x,y,z forces =    1.1002E+05    2.5501E+04   -3.2296E+05  setid=       0
 node=    71 local x,y,z forces =   -1.0896E+05    4.2038E+04   -3.1690E+05  setid=       0
 node=    72 local x,y,z forces =   -7.4971E+04    8.4103E+04   -5.0608E+05  setid=       0
 node=    73 local x,y,z forces =   -3.9997E+04    8.5179E+04   -4.6107E+05  setid=       0
 node=    74 local x,y,z forces =   -2.5847E+02    8.6178E+04   -4.7769E+05  setid=       0
 node=    75 local x,y,z forces =    3.9654E+04    8.5467E+04   -4.6269E+05  setid=       0
 node=    76 local x,y,z forces =    7.4944E+04    8.4696E+04   -5.0950E+05  setid=       0
 node=    77 local x,y,z forces =    1.0965E+05    4.2422E+04   -3.1942E+05  setid=       0
 node=    78 local x,y,z forces =   -1.1537E+05    4.6589E+04   -3.5426E+05  setid=       0
 node=    79 local x,y,z forces =   -7.4615E+04    9.3657E+04   -5.8195E+05  setid=       0
 node=    80 local x,y,z forces =   -3.9556E+04    9.5190E+04   -5.3794E+05  setid=       0
 node=    81 local x,y,z forces =   -3.7551E+02    9.6206E+04   -5.5425E+05  setid=       0
 node=    82 local x,y,z forces =    3.8968E+04    9.5509E+04   -5.3979E+05  setid=       0
 node=    83 local x,y,z forces =    7.4395E+04    9.4296E+04   -5.8574E+05  setid=       0
 node=    84 local x,y,z forces =    1.1600E+05    4.7003E+04   -3.5693E+05  setid=       0
 node=    85 local x,y,z forces =   -6.1977E+04    7.7634E+04   -2.2007E+05  setid=       0
 node=    86 local x,y,z forces =   -3.7560E+04    1.4780E+05   -3.7773E+05  setid=       0
 node=    87 local x,y,z forces =   -1.9910E+04    1.4360E+05   -3.5714E+05  setid=       0
 node=    88 local x,y,z forces =   -2.3633E+02    1.4534E+05   -3.6577E+05  setid=       0
 node=    89 local x,y,z forces =    1.9516E+04    1.4409E+05   -3.5836E+05  setid=       0
 node=    90 local x,y,z forces =    3.7369E+04    1.4877E+05   -3.8015E+05  setid=       0
 node=    91 local x,y,z forces =    6.2289E+04    7.8251E+04   -2.2171E+05  setid=       0
 node=  4554 local x,y,z forces =   -6.6785E+01   -4.9248E+05    0.0000E+00  setid=       0
 node=  4561 local x,y,z forces =   -1.5345E+02   -3.3353E+05    0.0000E+00  setid=       0
 node=  4568 local x,y,z forces =   -1.7264E+02   -2.1394E+05    0.0000E+00  setid=       0
 node=  4575 local x,y,z forces =   -1.9386E+02   -1.2873E+05    0.0000E+00  setid=       0
 node=  4582 local x,y,z forces =   -2.1134E+02   -8.1945E+04    0.0000E+00  setid=       0
 node=  4589 local x,y,z forces =   -2.2161E+02   -3.5809E+04    0.0000E+00  setid=       0
 node=  4596 local x,y,z forces =   -2.2581E+02    1.6880E-09    0.0000E+00  setid=       0
 node=  4603 local x,y,z forces =   -2.2161E+02    3.5809E+04    0.0000E+00  setid=       0
 node=  4610 local x,y,z forces =   -2.1134E+02    8.1945E+04    0.0000E+00  setid=       0
 node=  4617 local x,y,z forces =   -1.9386E+02    1.2873E+05    0.0000E+00  setid=       0
 node=  4624 local x,y,z forces =   -1.7264E+02    2.1394E+05    0.0000E+00  setid=       0
 node=  4631 local x,y,z forces =   -1.5345E+02    3.3353E+05    0.0000E+00  setid=       0
 node=  4638 local x,y,z forces =   -6.6785E+01    4.9248E+05    0.0000E+00  setid=       0
             force resultants   =   -5.4706E+02   -1.2224E-09   -3.9069E+07
 output at time =   4.00000E-03
 node=     1 local x,y,z forces =   -7.0785E+04   -8.8628E+04   -2.5146E+05  setid=       0
 node=     2 local x,y,z forces =   -4.2951E+04   -1.6876E+05   -4.3163E+05  setid=       0
 node=     3 local x,y,z forces =   -2.2820E+04   -1.6402E+05   -4.0825E+05  setid=       0
 node=     4 local x,y,z forces =   -3.4284E+02   -1.6609E+05   -4.1830E+05  setid=       0
 node=     5 local x,y,z forces =    2.2248E+04   -1.6472E+05   -4.1000E+05  setid=       0
 node=     6 local x,y,z forces =    4.2675E+04   -1.7015E+05   -4.3513E+05  setid=       0
 node=     7 local x,y,z forces =    7.1234E+04   -8.9516E+04   -2.5382E+05  setid=       0
 node=     8 local x,y,z forces =   -1.3175E+05   -5.3170E+04   -4.0475E+05  setid=       0
 node=     9 local x,y,z forces =   -8.5301E+04   -1.0692E+05   -6.6488E+05  setid=       0
 node=    10 local x,y,z forces =   -4.5307E+04   -1.0872E+05   -6.1480E+05  setid=       0
 node=    11 local x,y,z forces =   -5.4476E+02   -1.0993E+05   -6.3374E+05  setid=       0
 node=    12 local x,y,z forces =    4.4454E+04   -1.0918E+05   -6.1748E+05  setid=       0
 node=    13 local x,y,z forces =    8.4985E+04   -1.0784E+05   -6.7035E+05  setid=       0
[...]
 node=  4624 local x,y,z forces =   -3.7190E+05    2.5323E+05    0.0000E+00  setid=       0
 node=  4631 local x,y,z forces =   -3.0840E+05    3.9432E+05    0.0000E+00  setid=       0
 node=  4638 local x,y,z forces =   -1.0460E+05    5.8587E+05    0.0000E+00  setid=       0
             force resultants   =   -1.2925E+04    1.1292E-08   -5.1351E+07
 output at time =   4.95000E-02
 node=     1 local x,y,z forces =    3.9782E+05    7.6980E+05    1.9101E+06  setid=       0
 node=     2 local x,y,z forces =   -2.4900E+05    1.1833E+06    2.8390E+06  setid=       0
 node=     3 local x,y,z forces =   -5.5147E+05    5.0630E+05    1.2409E+06  setid=       0
 node=     4 local x,y,z forces =   -6.7410E+05   -1.8203E+05   -4.4723E+05  setid=       0
 node=     5 local x,y,z forces =   -5.7845E+05   -8.5676E+05   -2.1865E+06  setid=       0
 node=     6 local x,y,z forces =   -2.6896E+05   -1.5035E+06   -3.9414E+06  setid=       0
 node=     7 local x,y,z forces =    4.7185E+05   -9.3275E+05   -2.6203E+06  setid=       0
 node=     8 local x,y,z forces =    8.0098E+05    5.1449E+05    3.1524E+06  setid=       0
 node=     9 local x,y,z forces =   -3.0421E+05    7.8950E+05    4.5037E+06  setid=       0
 node=    10 local x,y,z forces =   -8.4178E+05    3.3565E+05    1.9342E+06  setid=       0
 node=    11 local x,y,z forces =   -1.0712E+06   -1.1757E+05   -6.5768E+05  setid=       0
 node=    12 local x,y,z forces =   -8.4138E+05   -5.5990E+05   -3.2962E+06  setid=       0
 node=    13 local x,y,z forces =   -2.6872E+05   -9.9410E+05   -6.0628E+06  setid=       0
 node=    14 local x,y,z forces =    9.6295E+05   -6.2938E+05   -4.2018E+06  setid=       0
 node=    15 local x,y,z forces =    8.8395E+05    4.7099E+05    3.0194E+06  setid=       0
 node=    16 local x,y,z forces =   -4.1156E+04    7.1295E+05    4.1207E+06  setid=       0
 node=    17 local x,y,z forces =   -5.0383E+05    2.9029E+05    1.7188E+06  setid=       0
 node=    18 local x,y,z forces =   -7.3423E+05   -1.1619E+05   -5.5105E+05  setid=       0
 node=    19 local x,y,z forces =   -4.7450E+05   -5.2285E+05   -2.8416E+06  setid=       0
 node=    20 local x,y,z forces =    1.5394E+04   -9.5277E+05   -5.4031E+06  setid=       0
 node=    21 local x,y,z forces =    1.0393E+06   -6.0085E+05   -3.9279E+06  setid=       0
 node=    22 local x,y,z forces =    9.7768E+05    2.9070E+05    3.2114E+06  setid=       0
 node=    23 local x,y,z forces =    8.4456E+04    4.4151E+05    4.3162E+06  setid=       0
 node=    24 local x,y,z forces =   -3.4658E+05    1.7929E+05    1.7585E+06  setid=       0
 node=    25 local x,y,z forces =   -5.8647E+05   -6.8720E+04   -5.6659E+05  setid=       0
 node=    26 local x,y,z forces =   -3.2268E+05   -3.1603E+05   -2.9121E+06  setid=       0
 node=    27 local x,y,z forces =    1.1584E+05   -5.8639E+05   -5.6420E+06  setid=       0
 node=    28 local x,y,z forces =    1.1202E+06   -3.7161E+05   -4.1685E+06  setid=       0
 node=    29 local x,y,z forces =    1.0263E+06    1.9885E+05    3.2806E+06  setid=       0
 node=    30 local x,y,z forces =    1.5011E+05    3.0391E+05    4.3570E+06  setid=       0
 node=    31 local x,y,z forces =   -2.5871E+05    1.2581E+05    1.7483E+06  setid=       0
 node=    32 local x,y,z forces =   -4.9455E+05   -4.8912E+04   -5.5744E+05  setid=       0
 node=    33 local x,y,z forces =   -2.2487E+05   -2.2489E+05   -2.8800E+06  setid=       0
 node=    34 local x,y,z forces =    1.8904E+05   -4.1140E+05   -5.6638E+06  setid=       0
 node=    35 local x,y,z forces =    1.1720E+06   -2.5879E+05   -4.2421E+06  setid=       0
 node=    36 local x,y,z forces =    1.0597E+06    9.0874E+04    3.3558E+06  setid=       0
 node=    37 local x,y,z forces =    1.8742E+05    1.3939E+05    4.4404E+06  setid=       0
 node=    38 local x,y,z forces =   -2.1338E+05    5.7915E+04    1.7707E+06  setid=       0
 node=    39 local x,y,z forces =   -4.5121E+05   -2.1887E+04   -5.6433E+05  setid=       0
 node=    40 local x,y,z forces =   -1.8148E+05   -1.0227E+05   -2.9160E+06  setid=       0
 node=    41 local x,y,z forces =    2.1633E+05   -1.8760E+05   -5.7683E+06  setid=       0
 node=    42 local x,y,z forces =    1.2002E+06   -1.1817E+05   -4.3385E+06  setid=       0
 node=    43 local x,y,z forces =    1.0674E+06    0.0000E+00    3.3646E+06  setid=       0
 node=    44 local x,y,z forces =    1.9674E+05    1.1642E-10    4.4422E+06  setid=       0
 node=    45 local x,y,z forces =   -1.9992E+05    3.2014E-10    1.7667E+06  setid=       0
 node=    46 local x,y,z forces =   -4.3610E+05   -5.8208E-10   -5.6105E+05  setid=       0
 node=    47 local x,y,z forces =   -1.6447E+05   -9.3132E-10   -2.9047E+06  setid=       0
 node=    48 local x,y,z forces =    2.3038E+05   -2.3283E-10   -5.7626E+06  setid=       0
 node=    49 local x,y,z forces =    1.2104E+06   -2.3283E-10   -4.3459E+06  setid=       0
 node=    50 local x,y,z forces =    1.0597E+06   -9.0874E+04    3.3558E+06  setid=       0
 node=    51 local x,y,z forces =    1.8742E+05   -1.3939E+05    4.4404E+06  setid=       0
 node=    52 local x,y,z forces =   -2.1338E+05   -5.7915E+04    1.7707E+06  setid=       0
 node=    53 local x,y,z forces =   -4.5121E+05    2.1887E+04   -5.6433E+05  setid=       0
 node=    54 local x,y,z forces =   -1.8148E+05    1.0227E+05   -2.9160E+06  setid=       0
 node=    55 local x,y,z forces =    2.1633E+05    1.8760E+05   -5.7683E+06  setid=       0
 node=    56 local x,y,z forces =    1.2002E+06    1.1817E+05   -4.3385E+06  setid=       0
 node=    57 local x,y,z forces =    1.0263E+06   -1.9885E+05    3.2806E+06  setid=       0
 node=    58 local x,y,z forces =    1.5011E+05   -3.0391E+05    4.3570E+06  setid=       0
 node=    59 local x,y,z forces =   -2.5871E+05   -1.2581E+05    1.7483E+06  setid=       0
 node=    60 local x,y,z forces =   -4.9455E+05    4.8912E+04   -5.5744E+05  setid=       0
 node=    61 local x,y,z forces =   -2.2487E+05    2.2489E+05   -2.8800E+06  setid=       0
 node=    62 local x,y,z forces =    1.8904E+05    4.1140E+05   -5.6638E+06  setid=       0
 node=    63 local x,y,z forces =    1.1720E+06    2.5879E+05   -4.2421E+06  setid=       0
 node=    64 local x,y,z forces =    9.7768E+05   -2.9070E+05    3.2114E+06  setid=       0
 node=    65 local x,y,z forces =    8.4456E+04   -4.4151E+05    4.3162E+06  setid=       0
 node=    66 local x,y,z forces =   -3.4658E+05   -1.7929E+05    1.7585E+06  setid=       0
 node=    67 local x,y,z forces =   -5.8647E+05    6.8720E+04   -5.6659E+05  setid=       0
 node=    68 local x,y,z forces =   -3.2268E+05    3.1603E+05   -2.9121E+06  setid=       0
 node=    69 local x,y,z forces =    1.1584E+05    5.8639E+05   -5.6420E+06  setid=       0
 node=    70 local x,y,z forces =    1.1202E+06    3.7161E+05   -4.1685E+06  setid=       0
 node=    71 local x,y,z forces =    8.8395E+05   -4.7099E+05    3.0194E+06  setid=       0
 node=    72 local x,y,z forces =   -4.1156E+04   -7.1295E+05    4.1207E+06  setid=       0
 node=    73 local x,y,z forces =   -5.0383E+05   -2.9029E+05    1.7188E+06  setid=       0
 node=    74 local x,y,z forces =   -7.3423E+05    1.1619E+05   -5.5105E+05  setid=       0
 node=    75 local x,y,z forces =   -4.7450E+05    5.2285E+05   -2.8416E+06  setid=       0
 node=    76 local x,y,z forces =    1.5394E+04    9.5277E+05   -5.4031E+06  setid=       0
 node=    77 local x,y,z forces =    1.0393E+06    6.0085E+05   -3.9279E+06  setid=       0
 node=    78 local x,y,z forces =    8.0098E+05   -5.1449E+05    3.1524E+06  setid=       0
 node=    79 local x,y,z forces =   -3.0421E+05   -7.8950E+05    4.5037E+06  setid=       0
 node=    80 local x,y,z forces =   -8.4178E+05   -3.3565E+05    1.9342E+06  setid=       0
 node=    81 local x,y,z forces =   -1.0712E+06    1.1757E+05   -6.5768E+05  setid=       0
 node=    82 local x,y,z forces =   -8.4138E+05    5.5990E+05   -3.2962E+06  setid=       0
 node=    83 local x,y,z forces =   -2.6872E+05    9.9410E+05   -6.0628E+06  setid=       0
 node=    84 local x,y,z forces =    9.6295E+05    6.2938E+05   -4.2018E+06  setid=       0
 node=    85 local x,y,z forces =    3.9782E+05   -7.6980E+05    1.9101E+06  setid=       0
 node=    86 local x,y,z forces =   -2.4900E+05   -1.1833E+06    2.8390E+06  setid=       0
 node=    87 local x,y,z forces =   -5.5147E+05   -5.0630E+05    1.2409E+06  setid=       0
 node=    88 local x,y,z forces =   -6.7410E+05    1.8203E+05   -4.4723E+05  setid=       0
 node=    89 local x,y,z forces =   -5.7845E+05    8.5676E+05   -2.1865E+06  setid=       0
 node=    90 local x,y,z forces =   -2.6896E+05    1.5035E+06   -3.9414E+06  setid=       0
 node=    91 local x,y,z forces =    4.7185E+05    9.3275E+05   -2.6203E+06  setid=       0
 node=  4554 local x,y,z forces =   -1.0552E+05   -5.8530E+05    0.0000E+00  setid=       0
 node=  4561 local x,y,z forces =   -3.1056E+05   -3.9391E+05    0.0000E+00  setid=       0
 node=  4568 local x,y,z forces =   -3.7429E+05   -2.5296E+05    0.0000E+00  setid=       0
 node=  4575 local x,y,z forces =   -4.4439E+05   -1.5206E+05    0.0000E+00  setid=       0
 node=  4582 local x,y,z forces =   -5.0254E+05   -9.6853E+04    0.0000E+00  setid=       0
 node=  4589 local x,y,z forces =   -5.3518E+05   -4.2306E+04    0.0000E+00  setid=       0
 node=  4596 local x,y,z forces =   -5.4920E+05    5.3551E-09    0.0000E+00  setid=       0
 node=  4603 local x,y,z forces =   -5.3518E+05    4.2306E+04    0.0000E+00  setid=       0
 node=  4610 local x,y,z forces =   -5.0254E+05    9.6853E+04    0.0000E+00  setid=       0
 node=  4617 local x,y,z forces =   -4.4439E+05    1.5206E+05    0.0000E+00  setid=       0
 node=  4624 local x,y,z forces =   -3.7429E+05    2.5296E+05    0.0000E+00  setid=       0
 node=  4631 local x,y,z forces =   -3.1056E+05    3.9391E+05    0.0000E+00  setid=       0
 node=  4638 local x,y,z forces =   -1.0552E+05    5.8530E+05    0.0000E+00  setid=       0
             force resultants   =   -1.2693E+04    1.6065E-08   -5.1359E+07
 output at time =   5.00000E-02
 node=     1 local x,y,z forces =    4.0072E+05    7.7477E+05    1.9220E+06  setid=       0
 node=     2 local x,y,z forces =   -2.4976E+05    1.1911E+06    2.8573E+06  setid=       0
 node=     3 local x,y,z forces =   -5.5419E+05    5.1024E+05    1.2503E+06  setid=       0
 node=     4 local x,y,z forces =   -6.7784E+05   -1.8196E+05   -4.4693E+05  setid=       0
 node=     5 local x,y,z forces =   -5.8204E+05   -8.6044E+05   -2.1962E+06  setid=       0
 node=     6 local x,y,z forces =   -2.7104E+05   -1.5106E+06   -3.9611E+06  setid=       0
 node=     7 local x,y,z forces =    4.7378E+05   -9.3728E+05   -2.6337E+06  setid=       0
 node=     8 local x,y,z forces =    8.0667E+05    5.1772E+05    3.1722E+06  setid=       0
 node=     9 local x,y,z forces =   -3.0486E+05    7.9471E+05    4.5330E+06  setid=       0
 node=    10 local x,y,z forces =   -8.4591E+05    3.3829E+05    1.9490E+06  setid=       0
 node=    11 local x,y,z forces =   -1.0771E+06   -1.1749E+05   -6.5700E+05  setid=       0
 node=    12 local x,y,z forces =   -8.4664E+05   -5.6228E+05   -3.3107E+06  setid=       0
 node=    13 local x,y,z forces =   -2.7114E+05   -9.9888E+05   -6.0926E+06  setid=       0
 node=    14 local x,y,z forces =    9.6710E+05   -6.3254E+05   -4.2231E+06  setid=       0
 node=    15 local x,y,z forces =    8.9004E+05    4.7388E+05    3.0383E+06  setid=       0
 node=    16 local x,y,z forces =   -4.0382E+04    7.1750E+05    4.1475E+06  setid=       0
 node=    17 local x,y,z forces =   -5.0613E+05    2.9250E+05    1.7320E+06  setid=       0
 node=    18 local x,y,z forces =   -7.3827E+05   -1.1624E+05   -5.5029E+05  setid=       0
 node=    19 local x,y,z forces =   -4.7762E+05   -5.2520E+05   -2.8540E+06  setid=       0
 node=    20 local x,y,z forces =    1.4622E+04   -9.5756E+05   -5.4295E+06  setid=       0
 node=    21 local x,y,z forces =    1.0440E+06   -6.0397E+05   -3.9478E+06  setid=       0
 node=    22 local x,y,z forces =    9.8433E+05    2.9247E+05    3.2314E+06  setid=       0
 node=    23 local x,y,z forces =    8.6018E+04    4.4431E+05    4.3441E+06  setid=       0
 node=    24 local x,y,z forces =   -3.4796E+05    1.8064E+05    1.7719E+06  setid=       0
 node=    25 local x,y,z forces =   -5.8968E+05   -6.8762E+04   -5.6590E+05  setid=       0
 node=    26 local x,y,z forces =   -3.2499E+05   -3.1746E+05   -2.9249E+06  setid=       0
 node=    27 local x,y,z forces =    1.1554E+05   -5.8936E+05   -5.6699E+06  setid=       0
 node=    28 local x,y,z forces =    1.1252E+06   -3.7355E+05   -4.1898E+06  setid=       0
 node=    29 local x,y,z forces =    1.0332E+06    2.0005E+05    3.3009E+06  setid=       0
 node=    30 local x,y,z forces =    1.5203E+05    3.0582E+05    4.3850E+06  setid=       0
 node=    31 local x,y,z forces =   -2.5962E+05    1.2674E+05    1.7615E+06  setid=       0
 node=    32 local x,y,z forces =   -4.9725E+05   -4.8957E+04   -5.5679E+05  setid=       0
 node=    33 local x,y,z forces =   -2.2661E+05   -2.2592E+05   -2.8926E+06  setid=       0
 node=    34 local x,y,z forces =    1.8916E+05   -4.1350E+05   -5.6918E+06  setid=       0
 node=    35 local x,y,z forces =    1.1774E+06   -2.6015E+05   -4.2640E+06  setid=       0
 node=    36 local x,y,z forces =    1.0668E+06    9.1424E+04    3.3765E+06  setid=       0
 node=    37 local x,y,z forces =    1.8958E+05    1.4027E+05    4.4689E+06  setid=       0
 node=    38 local x,y,z forces =   -2.1402E+05    5.8341E+04    1.7841E+06  setid=       0
 node=    39 local x,y,z forces =   -4.5366E+05   -2.1908E+04   -5.6373E+05  setid=       0
 node=    40 local x,y,z forces =   -1.8299E+05   -1.0274E+05   -2.9288E+06  setid=       0
 node=    41 local x,y,z forces =    2.1657E+05   -1.8856E+05   -5.7969E+06  setid=       0
 node=    42 local x,y,z forces =    1.2057E+06   -1.1879E+05   -4.3609E+06  setid=       0
 node=    43 local x,y,z forces =    1.0745E+06    0.0000E+00    3.3853E+06  setid=       0
 node=    44 local x,y,z forces =    1.9895E+05    6.9849E-10    4.4707E+06  setid=       0
 node=    45 local x,y,z forces =   -2.0050E+05    7.8580E-10    1.7801E+06  setid=       0
 node=    46 local x,y,z forces =   -4.3847E+05   -5.8208E-10   -5.6045E+05  setid=       0
 node=    47 local x,y,z forces =   -1.6588E+05   -9.3132E-10   -2.9175E+06  setid=       0
 node=    48 local x,y,z forces =    2.3071E+05   -9.3132E-10   -5.7912E+06  setid=       0
 node=    49 local x,y,z forces =    1.2160E+06    4.6566E-10   -4.3684E+06  setid=       0
 node=    50 local x,y,z forces =    1.0668E+06   -9.1424E+04    3.3765E+06  setid=       0
 node=    51 local x,y,z forces =    1.8958E+05   -1.4027E+05    4.4689E+06  setid=       0
 node=    52 local x,y,z forces =   -2.1402E+05   -5.8341E+04    1.7841E+06  setid=       0
 node=    53 local x,y,z forces =   -4.5366E+05    2.1908E+04   -5.6373E+05  setid=       0
 node=    54 local x,y,z forces =   -1.8299E+05    1.0274E+05   -2.9288E+06  setid=       0
 node=    55 local x,y,z forces =    2.1657E+05    1.8856E+05   -5.7969E+06  setid=       0
 node=    56 local x,y,z forces =    1.2057E+06    1.1879E+05   -4.3609E+06  setid=       0
 node=    57 local x,y,z forces =    1.0332E+06   -2.0005E+05    3.3009E+06  setid=       0
 node=    58 local x,y,z forces =    1.5203E+05   -3.0582E+05    4.3850E+06  setid=       0
 node=    59 local x,y,z forces =   -2.5962E+05   -1.2674E+05    1.7615E+06  setid=       0
 node=    60 local x,y,z forces =   -4.9725E+05    4.8957E+04   -5.5679E+05  setid=       0
 node=    61 local x,y,z forces =   -2.2661E+05    2.2592E+05   -2.8926E+06  setid=       0
 node=    62 local x,y,z forces =    1.8916E+05    4.1350E+05   -5.6918E+06  setid=       0
 node=    63 local x,y,z forces =    1.1774E+06    2.6015E+05   -4.2640E+06  setid=       0
 node=    64 local x,y,z forces =    9.8433E+05   -2.9247E+05    3.2314E+06  setid=       0
 node=    65 local x,y,z forces =    8.6018E+04   -4.4431E+05    4.3441E+06  setid=       0
 node=    66 local x,y,z forces =   -3.4796E+05   -1.8064E+05    1.7719E+06  setid=       0
 node=    67 local x,y,z forces =   -5.8968E+05    6.8762E+04   -5.6590E+05  setid=       0
 node=    68 local x,y,z forces =   -3.2499E+05    3.1746E+05   -2.9249E+06  setid=       0
 node=    69 local x,y,z forces =    1.1554E+05    5.8936E+05   -5.6699E+06  setid=       0
 node=    70 local x,y,z forces =    1.1252E+06    3.7355E+05   -4.1898E+06  setid=       0
 node=    71 local x,y,z forces =    8.9004E+05   -4.7388E+05    3.0383E+06  setid=       0
 node=    72 local x,y,z forces =   -4.0382E+04   -7.1750E+05    4.1475E+06  setid=       0
 node=    73 local x,y,z forces =   -5.0613E+05   -2.9250E+05    1.7320E+06  setid=       0
 node=    74 local x,y,z forces =   -7.3827E+05    1.1624E+05   -5.5029E+05  setid=       0
 node=    75 local x,y,z forces =   -4.7762E+05    5.2520E+05   -2.8540E+06  setid=       0
 node=    76 local x,y,z forces =    1.4622E+04    9.5756E+05   -5.4295E+06  setid=       0
 node=    77 local x,y,z forces =    1.0440E+06    6.0397E+05   -3.9478E+06  setid=       0
 node=    78 local x,y,z forces =    8.0667E+05   -5.1772E+05    3.1722E+06  setid=       0
 node=    79 local x,y,z forces =   -3.0486E+05   -7.9471E+05    4.5330E+06  setid=       0
 node=    80 local x,y,z forces =   -8.4591E+05   -3.3829E+05    1.9490E+06  setid=       0
 node=    81 local x,y,z forces =   -1.0771E+06    1.1749E+05   -6.5700E+05  setid=       0
 node=    82 local x,y,z forces =   -8.4664E+05    5.6228E+05   -3.3107E+06  setid=       0
 node=    83 local x,y,z forces =   -2.7114E+05    9.9888E+05   -6.0926E+06  setid=       0
 node=    84 local x,y,z forces =    9.6710E+05    6.3254E+05   -4.2231E+06  setid=       0
 node=    85 local x,y,z forces =    4.0072E+05   -7.7477E+05    1.9220E+06  setid=       0
 node=    86 local x,y,z forces =   -2.4976E+05   -1.1911E+06    2.8573E+06  setid=       0
 node=    87 local x,y,z forces =   -5.5419E+05   -5.1024E+05    1.2503E+06  setid=       0
 node=    88 local x,y,z forces =   -6.7784E+05    1.8196E+05   -4.4693E+05  setid=       0
 node=    89 local x,y,z forces =   -5.8204E+05    8.6044E+05   -2.1962E+06  setid=       0
 node=    90 local x,y,z forces =   -2.7104E+05    1.5106E+06   -3.9611E+06  setid=       0
 node=    91 local x,y,z forces =    4.7378E+05    9.3728E+05   -2.6337E+06  setid=       0
 node=  4554 local x,y,z forces =   -1.0645E+05   -5.8474E+05    0.0000E+00  setid=       0
 node=  4561 local x,y,z forces =   -3.1273E+05   -3.9350E+05    0.0000E+00  setid=       0
 node=  4568 local x,y,z forces =   -3.7668E+05   -2.5270E+05    0.0000E+00  setid=       0
 node=  4575 local x,y,z forces =   -4.4703E+05   -1.5190E+05    0.0000E+00  setid=       0
 node=  4582 local x,y,z forces =   -5.0539E+05   -9.6752E+04    0.0000E+00  setid=       0
 node=  4589 local x,y,z forces =   -5.3815E+05   -4.2262E+04    0.0000E+00  setid=       0
 node=  4596 local x,y,z forces =   -5.5222E+05    5.6461E-09    0.0000E+00  setid=       0
 node=  4603 local x,y,z forces =   -5.3815E+05    4.2262E+04    0.0000E+00  setid=       0
 node=  4610 local x,y,z forces =   -5.0539E+05    9.6752E+04    0.0000E+00  setid=       0
 node=  4617 local x,y,z forces =   -4.4703E+05    1.5190E+05    0.0000E+00  setid=       0
 node=  4624 local x,y,z forces =   -3.7668E+05    2.5270E+05    0.0000E+00  setid=       0
 node=  4631 local x,y,z forces =   -3.1273E+05    3.9350E+05    0.0000E+00  setid=       0
 node=  4638 local x,y,z forces =   -1.0645E+05    5.8474E+05    0.0000E+00  setid=       0
             force resultants   =   -1.2468E+04    5.3551E-09   -5.1367E+07
