 400x600                                                                 
                         ls-dyna smp.123264 d           date 01/12/2018

{BEGIN LEGEND}
 Entity #        Title
        0     bottom                                                                
        0     top                                                                   
        0     middle                                                                
{END LEGEND}

 single point constraint forces

 output at time =   0.00000E+00
 node=     3 local x,y,z forces =    0.0000E+00    0.0000E+00    0.0000E+00  setid=       0
 node=     8 local x,y,z forces =    0.0000E+00    0.0000E+00    0.0000E+00  setid=       0
 node=    13 local x,y,z forces =    0.0000E+00    0.0000E+00    0.0000E+00  setid=       0
 node=    18 local x,y,z forces =    0.0000E+00    0.0000E+00    0.0000E+00  setid=       0
 node=    23 local x,y,z forces =    0.0000E+00    0.0000E+00    0.0000E+00  setid=       0
 node=    28 local x,y,z forces =    0.0000E+00    0.0000E+00    0.0000E+00  setid=       0
 node=    33 local x,y,z forces =    0.0000E+00    0.0000E+00    0.0000E+00  setid=       0
 node=    38 local x,y,z forces =    0.0000E+00    0.0000E+00    0.0000E+00  setid=       0
 node=    43 local x,y,z forces =    0.0000E+00    0.0000E+00    0.0000E+00  setid=       0
 node=    48 local x,y,z forces =    0.0000E+00    0.0000E+00    0.0000E+00  setid=       0
 node=    53 local x,y,z forces =    0.0000E+00    0.0000E+00    0.0000E+00  setid=       0
 node=    58 local x,y,z forces =    0.0000E+00    0.0000E+00    0.0000E+00  setid=       0
 node=    63 local x,y,z forces =    0.0000E+00    0.0000E+00    0.0000E+00  setid=       0
 node=    68 local x,y,z forces =    0.0000E+00    0.0000E+00    0.0000E+00  setid=       0
 node=    73 local x,y,z forces =    0.0000E+00    0.0000E+00    0.0000E+00  setid=       0
 node=    78 local x,y,z forces =    0.0000E+00    0.0000E+00    0.0000E+00  setid=       0
 node=    83 local x,y,z forces =    0.0000E+00    0.0000E+00    0.0000E+00  setid=       0
 node=    88 local x,y,z forces =    0.0000E+00    0.0000E+00    0.0000E+00  setid=       0
 node=    93 local x,y,z forces =    0.0000E+00    0.0000E+00    0.0000E+00  setid=       0
 node=    98 local x,y,z forces =    0.0000E+00    0.0000E+00    0.0000E+00  setid=       0
 node=   103 local x,y,z forces =    0.0000E+00    0.0000E+00    0.0000E+00  setid=       0
 node=   108 local x,y,z forces =    0.0000E+00    0.0000E+00    0.0000E+00  setid=       0
 node=   113 local x,y,z forces =    0.0000E+00    0.0000E+00    0.0000E+00  setid=       0
 node=   118 local x,y,z forces =    0.0000E+00    0.0000E+00    0.0000E+00  setid=       0
 node=   123 local x,y,z forces =    0.0000E+00    0.0000E+00    0.0000E+00  setid=       0
 node=  6253 local x,y,z forces =    0.0000E+00    0.0000E+00    0.0000E+00  setid=       0
 node=  6258 local x,y,z forces =    0.0000E+00    0.0000E+00    0.0000E+00  setid=       0
 node=  6263 local x,y,z forces =    0.0000E+00    0.0000E+00    0.0000E+00  setid=       0
 node=  6268 local x,y,z forces =    0.0000E+00    0.0000E+00    0.0000E+00  setid=       0
 node=  6273 local x,y,z forces =    0.0000E+00    0.0000E+00    0.0000E+00  setid=       0
 node=  6278 local x,y,z forces =    0.0000E+00    0.0000E+00    0.0000E+00  setid=       0
 node=  6283 local x,y,z forces =    0.0000E+00    0.0000E+00    0.0000E+00  setid=       0
 node=  6288 local x,y,z forces =    0.0000E+00    0.0000E+00    0.0000E+00  setid=       0
 node=  6293 local x,y,z forces =    0.0000E+00    0.0000E+00    0.0000E+00  setid=       0
 node=  6298 local x,y,z forces =    0.0000E+00    0.0000E+00    0.0000E+00  setid=       0
 node=  6303 local x,y,z forces =    0.0000E+00    0.0000E+00    0.0000E+00  setid=       0
 node=  6308 local x,y,z forces =    0.0000E+00    0.0000E+00    0.0000E+00  setid=       0
 node=  6313 local x,y,z forces =    0.0000E+00    0.0000E+00    0.0000E+00  setid=       0
 node=  6318 local x,y,z forces =    0.0000E+00    0.0000E+00    0.0000E+00  setid=       0
 node=  6323 local x,y,z forces =    0.0000E+00    0.0000E+00    0.0000E+00  setid=       0
 node=  6328 local x,y,z forces =    0.0000E+00    0.0000E+00    0.0000E+00  setid=       0
 node=  6333 local x,y,z forces =    0.0000E+00    0.0000E+00    0.0000E+00  setid=       0
 node=  6338 local x,y,z forces =    0.0000E+00    0.0000E+00    0.0000E+00  setid=       0
 node=  6343 local x,y,z forces =    0.0000E+00    0.0000E+00    0.0000E+00  setid=       0
 node=  6348 local x,y,z forces =    0.0000E+00    0.0000E+00    0.0000E+00  setid=       0
 node=  6353 local x,y,z forces =    0.0000E+00    0.0000E+00    0.0000E+00  setid=       0
 node=  6358 local x,y,z forces =    0.0000E+00    0.0000E+00    0.0000E+00  setid=       0
 node=  6363 local x,y,z forces =    0.0000E+00    0.0000E+00    0.0000E+00  setid=       0
 node=  6368 local x,y,z forces =    0.0000E+00    0.0000E+00    0.0000E+00  setid=       0
 node=  6373 local x,y,z forces =    0.0000E+00    0.0000E+00    0.0000E+00  setid=       0
             force resultants   =    0.0000E+00    0.0000E+00    0.0000E+00
 output at time =   5.00000E-04
 node=     3 local x,y,z forces =    1.5902E+03   -1.2465E+04   -3.4737E+04  setid=       0
 node=     8 local x,y,z forces =    1.7147E+03   -1.0273E+04   -6.6445E+04  setid=       0
 node=    13 local x,y,z forces =    6.0458E+02   -7.1310E+03   -6.4050E+04  setid=       0
 node=    18 local x,y,z forces =    5.0506E+01   -6.2074E+03   -6.2770E+04  setid=       0
 node=    23 local x,y,z forces =   -2.5592E+02   -5.8667E+03   -6.1791E+04  setid=       0
 node=    28 local x,y,z forces =   -3.8020E+02   -5.0044E+03   -6.1159E+04  setid=       0
 node=    33 local x,y,z forces =   -4.6070E+02   -4.3551E+03   -6.0701E+04  setid=       0
 node=    38 local x,y,z forces =   -4.9388E+02   -3.5649E+03   -6.0388E+04  setid=       0
 node=    43 local x,y,z forces =   -5.1737E+02   -2.8630E+03   -6.0160E+04  setid=       0
 node=    48 local x,y,z forces =   -5.2693E+02   -2.1267E+03   -6.0004E+04  setid=       0
 node=    53 local x,y,z forces =   -5.3439E+02   -1.4195E+03   -5.9900E+04  setid=       0
 node=    58 local x,y,z forces =   -5.3668E+02   -7.0631E+02   -5.9841E+04  setid=       0
 node=    63 local x,y,z forces =   -5.3833E+02    2.8504E-09   -5.9822E+04  setid=       0
 node=    68 local x,y,z forces =   -5.3668E+02    7.0631E+02   -5.9841E+04  setid=       0
 node=    73 local x,y,z forces =   -5.3439E+02    1.4195E+03   -5.9900E+04  setid=       0
 node=    78 local x,y,z forces =   -5.2693E+02    2.1267E+03   -6.0004E+04  setid=       0
 node=    83 local x,y,z forces =   -5.1737E+02    2.8630E+03   -6.0160E+04  setid=       0
 node=    88 local x,y,z forces =   -4.9388E+02    3.5649E+03   -6.0388E+04  setid=       0
 node=    93 local x,y,z forces =   -4.6070E+02    4.3551E+03   -6.0701E+04  setid=       0
 node=    98 local x,y,z forces =   -3.8020E+02    5.0044E+03   -6.1159E+04  setid=       0
 node=   103 local x,y,z forces =   -2.5592E+02    5.8667E+03   -6.1791E+04  setid=       0
 node=   108 local x,y,z forces =    5.0506E+01    6.2074E+03   -6.2770E+04  setid=       0
 node=   113 local x,y,z forces =    6.0458E+02    7.1310E+03   -6.4050E+04  setid=       0
 node=   118 local x,y,z forces =    1.7147E+03    1.0273E+04   -6.6445E+04  setid=       0
 node=   123 local x,y,z forces =    1.5902E+03    1.2465E+04   -3.4737E+04  setid=       0
 node=  6253 local x,y,z forces =    1.5902E+03   -1.2465E+04    0.0000E+00  setid=       0
 node=  6258 local x,y,z forces =    1.7147E+03   -1.0273E+04    0.0000E+00  setid=       0
 node=  6263 local x,y,z forces =    6.0458E+02   -7.1310E+03    0.0000E+00  setid=       0
 node=  6268 local x,y,z forces =    5.0506E+01   -6.2074E+03    0.0000E+00  setid=       0
 node=  6273 local x,y,z forces =   -2.5592E+02   -5.8667E+03    0.0000E+00  setid=       0
 node=  6278 local x,y,z forces =   -3.8020E+02   -5.0044E+03    0.0000E+00  setid=       0
 node=  6283 local x,y,z forces =   -4.6070E+02   -4.3551E+03    0.0000E+00  setid=       0
 node=  6288 local x,y,z forces =   -4.9388E+02   -3.5649E+03    0.0000E+00  setid=       0
 node=  6293 local x,y,z forces =   -5.1737E+02   -2.8630E+03    0.0000E+00  setid=       0
 node=  6298 local x,y,z forces =   -5.2693E+02   -2.1267E+03    0.0000E+00  setid=       0
 node=  6303 local x,y,z forces =   -5.3439E+02   -1.4195E+03    0.0000E+00  setid=       0
 node=  6308 local x,y,z forces =   -5.3668E+02   -7.0631E+02    0.0000E+00  setid=       0
 node=  6313 local x,y,z forces =   -5.3833E+02    2.0045E-09    0.0000E+00  setid=       0
 node=  6318 local x,y,z forces =   -5.3668E+02    7.0631E+02    0.0000E+00  setid=       0
 node=  6323 local x,y,z forces =   -5.3439E+02    1.4195E+03    0.0000E+00  setid=       0
 node=  6328 local x,y,z forces =   -5.2693E+02    2.1267E+03    0.0000E+00  setid=       0
 node=  6333 local x,y,z forces =   -5.1737E+02    2.8630E+03    0.0000E+00  setid=       0
 node=  6338 local x,y,z forces =   -4.9388E+02    3.5649E+03    0.0000E+00  setid=       0
 node=  6343 local x,y,z forces =   -4.6070E+02    4.3551E+03    0.0000E+00  setid=       0
 node=  6348 local x,y,z forces =   -3.8020E+02    5.0044E+03    0.0000E+00  setid=       0
 node=  6353 local x,y,z forces =   -2.5592E+02    5.8667E+03    0.0000E+00  setid=       0
 node=  6358 local x,y,z forces =    5.0506E+01    6.2074E+03    0.0000E+00  setid=       0
 node=  6363 local x,y,z forces =    6.0458E+02    7.1310E+03    0.0000E+00  setid=       0
 node=  6368 local x,y,z forces =    1.7147E+03    1.0273E+04    0.0000E+00  setid=       0
 node=  6373 local x,y,z forces =    1.5902E+03    1.2465E+04    0.0000E+00  setid=       0
             force resultants   =   -6.0813E+01    3.3342E-09   -1.4837E+06
 output at time =   1.00000E-03
 node=     3 local x,y,z forces =    2.7643E+03   -1.2860E+04   -3.4854E+04  setid=       0
 node=     8 local x,y,z forces =    2.9842E+03   -1.0248E+04   -6.6620E+04  setid=       0
 node=    13 local x,y,z forces =    1.0568E+03   -7.1139E+03   -6.4179E+04  setid=       0
 node=    18 local x,y,z forces =    9.4830E+01   -6.1926E+03   -6.2877E+04  setid=       0
 node=    23 local x,y,z forces =   -4.3726E+02   -5.8529E+03   -6.1885E+04  setid=       0
 node=    28 local x,y,z forces =   -6.5315E+02   -4.9927E+03   -6.1249E+04  setid=       0
 node=    33 local x,y,z forces =   -7.9302E+02   -4.3450E+03   -6.0788E+04  setid=       0
 node=    38 local x,y,z forces =   -8.5072E+02   -3.5568E+03   -6.0474E+04  setid=       0
 node=    43 local x,y,z forces =   -8.9160E+02   -2.8565E+03   -6.0246E+04  setid=       0
 node=    48 local x,y,z forces =   -9.0827E+02   -2.1220E+03   -6.0090E+04  setid=       0
 node=    53 local x,y,z forces =   -9.2128E+02   -1.4163E+03   -5.9985E+04  setid=       0
 node=    58 local x,y,z forces =   -9.2527E+02   -7.0473E+02   -5.9926E+04  setid=       0
 node=    63 local x,y,z forces =   -9.2816E+02    1.7171E-09   -5.9907E+04  setid=       0
 node=    68 local x,y,z forces =   -9.2527E+02    7.0473E+02   -5.9926E+04  setid=       0
 node=    73 local x,y,z forces =   -9.2128E+02    1.4163E+03   -5.9985E+04  setid=       0
 node=    78 local x,y,z forces =   -9.0827E+02    2.1220E+03   -6.0090E+04  setid=       0
 node=    83 local x,y,z forces =   -8.9160E+02    2.8565E+03   -6.0246E+04  setid=       0
 node=    88 local x,y,z forces =   -8.5072E+02    3.5568E+03   -6.0474E+04  setid=       0
 node=    93 local x,y,z forces =   -7.9302E+02    4.3450E+03   -6.0788E+04  setid=       0
 node=    98 local x,y,z forces =   -6.5315E+02    4.9927E+03   -6.1249E+04  setid=       0
 node=   103 local x,y,z forces =   -4.3726E+02    5.8529E+03   -6.1885E+04  setid=       0
 node=   108 local x,y,z forces =    9.4830E+01    6.1926E+03   -6.2877E+04  setid=       0
 node=   113 local x,y,z forces =    1.0568E+03    7.1139E+03   -6.4179E+04  setid=       0
 node=   118 local x,y,z forces =    2.9842E+03    1.0248E+04   -6.6620E+04  setid=       0
 node=   123 local x,y,z forces =    2.7643E+03    1.2860E+04   -3.4854E+04  setid=       0
 node=  6253 local x,y,z forces =    2.8092E+03   -1.2215E+04    0.0000E+00  setid=       0
 node=  6258 local x,y,z forces =    3.0582E+03   -1.0250E+04    0.0000E+00  setid=       0
 node=  6263 local x,y,z forces =    1.1160E+03   -7.1156E+03    0.0000E+00  setid=       0
 node=  6268 local x,y,z forces =    1.4681E+02   -6.1944E+03    0.0000E+00  setid=       0
 node=  6273 local x,y,z forces =   -3.8922E+02   -5.8546E+03    0.0000E+00  setid=       0
 node=  6278 local x,y,z forces =   -6.0696E+02   -4.9942E+03    0.0000E+00  setid=       0
 node=  6283 local x,y,z forces =   -7.4797E+02   -4.3463E+03    0.0000E+00  setid=       0
 node=  6288 local x,y,z forces =   -8.0623E+02   -3.5579E+03    0.0000E+00  setid=       0
 node=  6293 local x,y,z forces =   -8.4748E+02   -2.8574E+03    0.0000E+00  setid=       0
 node=  6298 local x,y,z forces =   -8.6434E+02   -2.1226E+03    0.0000E+00  setid=       0
 node=  6303 local x,y,z forces =   -8.7748E+02   -1.4168E+03    0.0000E+00  setid=       0
 node=  6308 local x,y,z forces =   -8.8153E+02   -7.0495E+02    0.0000E+00  setid=       0
 node=  6313 local x,y,z forces =   -8.8444E+02    1.2278E-09    0.0000E+00  setid=       0
 node=  6318 local x,y,z forces =   -8.8153E+02    7.0495E+02    0.0000E+00  setid=       0
 node=  6323 local x,y,z forces =   -8.7748E+02    1.4168E+03    0.0000E+00  setid=       0
 node=  6328 local x,y,z forces =   -8.6434E+02    2.1226E+03    0.0000E+00  setid=       0
 node=  6333 local x,y,z forces =   -8.4748E+02    2.8574E+03    0.0000E+00  setid=       0
 node=  6338 local x,y,z forces =   -8.0623E+02    3.5579E+03    0.0000E+00  setid=       0
 node=  6343 local x,y,z forces =   -7.4797E+02    4.3463E+03    0.0000E+00  setid=       0
 node=  6348 local x,y,z forces =   -6.0696E+02    4.9942E+03    0.0000E+00  setid=       0
 node=  6353 local x,y,z forces =   -3.8922E+02    5.8546E+03    0.0000E+00  setid=       0
 node=  6358 local x,y,z forces =    1.4681E+02    6.1944E+03    0.0000E+00  setid=       0
 node=  6363 local x,y,z forces =    1.1160E+03    7.1156E+03    0.0000E+00  setid=       0
 node=  6368 local x,y,z forces =    3.0582E+03    1.0250E+04    0.0000E+00  setid=       0
 node=  6373 local x,y,z forces =    2.8092E+03    1.2215E+04    0.0000E+00  setid=       0
             force resultants   =    1.4445E+03    1.3461E-09   -1.4863E+06
 output at time =   1.50000E-03
 node=     3 local x,y,z forces =    3.5664E+03   -1.2302E+04   -3.4806E+04  setid=       0
 node=     8 local x,y,z forces =    3.8584E+03   -1.0253E+04   -6.6454E+04  setid=       0
 node=    13 local x,y,z forces =    1.3759E+03   -7.1179E+03   -6.3962E+04  setid=       0
 node=    18 local x,y,z forces =    1.3686E+02   -6.1966E+03   -6.2635E+04  setid=       0
 node=    23 local x,y,z forces =   -5.4847E+02   -5.8568E+03   -6.1630E+04  setid=       0
 node=    28 local x,y,z forces =   -8.2659E+02   -4.9962E+03   -6.0988E+04  setid=       0
 node=    33 local x,y,z forces =   -1.0068E+03   -4.3482E+03   -6.0524E+04  setid=       0
 node=    38 local x,y,z forces =   -1.0812E+03   -3.5595E+03   -6.0209E+04  setid=       0
 node=    43 local x,y,z forces =   -1.1338E+03   -2.8587E+03   -5.9979E+04  setid=       0
 node=    48 local x,y,z forces =   -1.1553E+03   -2.1237E+03   -5.9823E+04  setid=       0
 node=    53 local x,y,z forces =   -1.1721E+03   -1.4175E+03   -5.9718E+04  setid=       0
 node=    58 local x,y,z forces =   -1.1773E+03   -7.0532E+02   -5.9660E+04  setid=       0
 node=    63 local x,y,z forces =   -1.1810E+03   -2.0318E-09   -5.9640E+04  setid=       0
 node=    68 local x,y,z forces =   -1.1773E+03    7.0532E+02   -5.9660E+04  setid=       0
 node=    73 local x,y,z forces =   -1.1721E+03    1.4175E+03   -5.9718E+04  setid=       0
 node=    78 local x,y,z forces =   -1.1553E+03    2.1237E+03   -5.9823E+04  setid=       0
 node=    83 local x,y,z forces =   -1.1338E+03    2.8587E+03   -5.9979E+04  setid=       0
 node=    88 local x,y,z forces =   -1.0812E+03    3.5595E+03   -6.0209E+04  setid=       0
 node=    93 local x,y,z forces =   -1.0068E+03    4.3482E+03   -6.0524E+04  setid=       0
 node=    98 local x,y,z forces =   -8.2659E+02    4.9962E+03   -6.0988E+04  setid=       0
 node=   103 local x,y,z forces =   -5.4847E+02    5.8568E+03   -6.1630E+04  setid=       0
 node=   108 local x,y,z forces =    1.3686E+02    6.1966E+03   -6.2635E+04  setid=       0
 node=   113 local x,y,z forces =    1.3759E+03    7.1179E+03   -6.3962E+04  setid=       0
 node=   118 local x,y,z forces =    3.8584E+03    1.0253E+04   -6.6454E+04  setid=       0
 node=   123 local x,y,z forces =    3.5664E+03    1.2302E+04   -3.4806E+04  setid=       0
 node=  6253 local x,y,z forces =    3.5699E+03   -1.2369E+04    0.0000E+00  setid=       0
 node=  6258 local x,y,z forces =    3.8661E+03   -1.0252E+04    0.0000E+00  setid=       0
 node=  6263 local x,y,z forces =    1.3843E+03   -7.1178E+03    0.0000E+00  setid=       0
 node=  6268 local x,y,z forces =    1.4553E+02   -6.1964E+03    0.0000E+00  setid=       0
 node=  6273 local x,y,z forces =   -5.3963E+02   -5.8567E+03    0.0000E+00  setid=       0
 node=  6278 local x,y,z forces =   -8.1767E+02   -4.9961E+03    0.0000E+00  setid=       0
 node=  6283 local x,y,z forces =   -9.9781E+02   -4.3481E+03    0.0000E+00  setid=       0
 node=  6288 local x,y,z forces =   -1.0722E+03   -3.5594E+03    0.0000E+00  setid=       0
 node=  6293 local x,y,z forces =   -1.1248E+03   -2.8587E+03    0.0000E+00  setid=       0
 node=  6298 local x,y,z forces =   -1.1463E+03   -2.1236E+03    0.0000E+00  setid=       0
 node=  6303 local x,y,z forces =   -1.1631E+03   -1.4174E+03    0.0000E+00  setid=       0
 node=  6308 local x,y,z forces =   -1.1682E+03   -7.0530E+02    0.0000E+00  setid=       0
 node=  6313 local x,y,z forces =   -1.1720E+03   -8.2764E-10    0.0000E+00  setid=       0
 node=  6318 local x,y,z forces =   -1.1682E+03    7.0530E+02    0.0000E+00  setid=       0
 node=  6323 local x,y,z forces =   -1.1631E+03    1.4174E+03    0.0000E+00  setid=       0
 node=  6328 local x,y,z forces =   -1.1463E+03    2.1236E+03    0.0000E+00  setid=       0
 node=  6333 local x,y,z forces =   -1.1248E+03    2.8587E+03    0.0000E+00  setid=       0
 node=  6338 local x,y,z forces =   -1.0722E+03    3.5594E+03    0.0000E+00  setid=       0
 node=  6343 local x,y,z forces =   -9.9781E+02    4.3481E+03    0.0000E+00  setid=       0
 node=  6348 local x,y,z forces =   -8.1767E+02    4.9961E+03    0.0000E+00  setid=       0
 node=  6353 local x,y,z forces =   -5.3963E+02    5.8567E+03    0.0000E+00  setid=       0
 node=  6358 local x,y,z forces =    1.4553E+02    6.1964E+03    0.0000E+00  setid=       0
 node=  6363 local x,y,z forces =    1.3843E+03    7.1178E+03    0.0000E+00  setid=       0
 node=  6368 local x,y,z forces =    3.8661E+03    1.0252E+04    0.0000E+00  setid=       0
 node=  6373 local x,y,z forces =    3.5699E+03    1.2369E+04    0.0000E+00  setid=       0
             force resultants   =    1.1914E+03    1.3342E-08   -1.4804E+06
 output at time =   2.00000E-03
 node=     3 local x,y,z forces =    4.2103E+03   -1.2305E+04   -3.4937E+04  setid=       0
 node=     8 local x,y,z forces =    4.5413E+03   -1.0267E+04   -6.6646E+04  setid=       0
 node=    13 local x,y,z forces =    1.6044E+03   -7.1282E+03   -6.4101E+04  setid=       0
 node=    18 local x,y,z forces =    1.3860E+02   -6.2058E+03   -6.2747E+04  setid=       0
 node=    23 local x,y,z forces =   -6.7204E+02   -5.8656E+03   -6.1726E+04  setid=       0
 node=    28 local x,y,z forces =   -1.0008E+03   -5.0039E+03   -6.1077E+04  setid=       0
 node=    33 local x,y,z forces =   -1.2138E+03   -4.3550E+03   -6.0609E+04  setid=       0
 node=    38 local x,y,z forces =   -1.3016E+03   -3.5652E+03   -6.0292E+04  setid=       0
 node=    43 local x,y,z forces =   -1.3638E+03   -2.8634E+03   -6.0061E+04  setid=       0
 node=    48 local x,y,z forces =   -1.3891E+03   -2.1271E+03   -5.9904E+04  setid=       0
 node=    53 local x,y,z forces =   -1.4089E+03   -1.4198E+03   -5.9799E+04  setid=       0
 node=    58 local x,y,z forces =   -1.4150E+03   -7.0648E+02   -5.9740E+04  setid=       0
 node=    63 local x,y,z forces =   -1.4194E+03    2.1446E-09   -5.9720E+04  setid=       0
 node=    68 local x,y,z forces =   -1.4150E+03    7.0648E+02   -5.9740E+04  setid=       0
 node=    73 local x,y,z forces =   -1.4089E+03    1.4198E+03   -5.9799E+04  setid=       0
 node=    78 local x,y,z forces =   -1.3891E+03    2.1271E+03   -5.9904E+04  setid=       0
 node=    83 local x,y,z forces =   -1.3638E+03    2.8634E+03   -6.0061E+04  setid=       0
 node=    88 local x,y,z forces =   -1.3016E+03    3.5652E+03   -6.0292E+04  setid=       0
 node=    93 local x,y,z forces =   -1.2138E+03    4.3550E+03   -6.0609E+04  setid=       0
 node=    98 local x,y,z forces =   -1.0008E+03    5.0039E+03   -6.1077E+04  setid=       0
 node=   103 local x,y,z forces =   -6.7204E+02    5.8656E+03   -6.1726E+04  setid=       0
 node=   108 local x,y,z forces =    1.3860E+02    6.2058E+03   -6.2747E+04  setid=       0
 node=   113 local x,y,z forces =    1.6044E+03    7.1282E+03   -6.4101E+04  setid=       0
 node=   118 local x,y,z forces =    4.5413E+03    1.0267E+04   -6.6646E+04  setid=       0
 node=   123 local x,y,z forces =    4.2103E+03    1.2305E+04   -3.4937E+04  setid=       0
 node=  6253 local x,y,z forces =    4.2162E+03   -1.2294E+04    0.0000E+00  setid=       0
 node=  6258 local x,y,z forces =    4.5537E+03   -1.0267E+04    0.0000E+00  setid=       0
 node=  6263 local x,y,z forces =    1.6170E+03   -7.1283E+03    0.0000E+00  setid=       0
 node=  6268 local x,y,z forces =    1.5135E+02   -6.2059E+03    0.0000E+00  setid=       0
 node=  6273 local x,y,z forces =   -6.5923E+02   -5.8657E+03    0.0000E+00  setid=       0
 node=  6278 local x,y,z forces =   -9.8797E+02   -5.0040E+03    0.0000E+00  setid=       0
 node=  6283 local x,y,z forces =   -1.2010E+03   -4.3551E+03    0.0000E+00  setid=       0
 node=  6288 local x,y,z forces =   -1.2888E+03   -3.5652E+03    0.0000E+00  setid=       0
 node=  6293 local x,y,z forces =   -1.3510E+03   -2.8634E+03    0.0000E+00  setid=       0
 node=  6298 local x,y,z forces =   -1.3763E+03   -2.1272E+03    0.0000E+00  setid=       0
 node=  6303 local x,y,z forces =   -1.3961E+03   -1.4198E+03    0.0000E+00  setid=       0
 node=  6308 local x,y,z forces =   -1.4022E+03   -7.0649E+02    0.0000E+00  setid=       0
 node=  6313 local x,y,z forces =   -1.4066E+03   -3.7107E-09    0.0000E+00  setid=       0
 node=  6318 local x,y,z forces =   -1.4022E+03    7.0649E+02    0.0000E+00  setid=       0
 node=  6323 local x,y,z forces =   -1.3961E+03    1.4198E+03    0.0000E+00  setid=       0
 node=  6328 local x,y,z forces =   -1.3763E+03    2.1272E+03    0.0000E+00  setid=       0
 node=  6333 local x,y,z forces =   -1.3510E+03    2.8634E+03    0.0000E+00  setid=       0
 node=  6338 local x,y,z forces =   -1.2888E+03    3.5652E+03    0.0000E+00  setid=       0
 node=  6343 local x,y,z forces =   -1.2010E+03    4.3551E+03    0.0000E+00  setid=       0
 node=  6348 local x,y,z forces =   -9.8797E+02    5.0040E+03    0.0000E+00  setid=       0
 node=  6353 local x,y,z forces =   -6.5923E+02    5.8657E+03    0.0000E+00  setid=       0
 node=  6358 local x,y,z forces =    1.5135E+02    6.2059E+03    0.0000E+00  setid=       0
 node=  6363 local x,y,z forces =    1.6170E+03    7.1283E+03    0.0000E+00  setid=       0
 node=  6368 local x,y,z forces =    4.5537E+03    1.0267E+04    0.0000E+00  setid=       0
 node=  6373 local x,y,z forces =    4.2162E+03    1.2294E+04    0.0000E+00  setid=       0
             force resultants   =    3.8454E+02    3.0153E-08   -1.4830E+06
 output at time =   2.50000E-03
 node=     3 local x,y,z forces =    4.7878E+03   -1.2403E+04   -3.5046E+04  setid=       0
 node=     8 local x,y,z forces =    5.1657E+03   -1.0265E+04   -6.6797E+04  setid=       0
 node=    13 local x,y,z forces =    1.8259E+03   -7.1274E+03   -6.4200E+04  setid=       0
 node=    18 local x,y,z forces =    1.5909E+02   -6.2053E+03   -6.2820E+04  setid=       0
 node=    23 local x,y,z forces =   -7.6268E+02   -5.8653E+03   -6.1785E+04  setid=       0
 node=    28 local x,y,z forces =   -1.1366E+03   -5.0038E+03   -6.1131E+04  setid=       0
 node=    33 local x,y,z forces =   -1.3788E+03   -4.3550E+03   -6.0659E+04  setid=       0
 node=    38 local x,y,z forces =   -1.4787E+03   -3.5653E+03   -6.0340E+04  setid=       0
 node=    43 local x,y,z forces =   -1.5494E+03   -2.8635E+03   -6.0108E+04  setid=       0
 node=    48 local x,y,z forces =   -1.5782E+03   -2.1273E+03   -5.9951E+04  setid=       0
 node=    53 local x,y,z forces =   -1.6007E+03   -1.4199E+03   -5.9845E+04  setid=       0
 node=    58 local x,y,z forces =   -1.6076E+03   -7.0654E+02   -5.9787E+04  setid=       0
 node=    63 local x,y,z forces =   -1.6126E+03   -6.1664E-10   -5.9767E+04  setid=       0
 node=    68 local x,y,z forces =   -1.6076E+03    7.0654E+02   -5.9787E+04  setid=       0
 node=    73 local x,y,z forces =   -1.6007E+03    1.4199E+03   -5.9845E+04  setid=       0
 node=    78 local x,y,z forces =   -1.5782E+03    2.1273E+03   -5.9951E+04  setid=       0
 node=    83 local x,y,z forces =   -1.5494E+03    2.8635E+03   -6.0108E+04  setid=       0
 node=    88 local x,y,z forces =   -1.4787E+03    3.5653E+03   -6.0340E+04  setid=       0
 node=    93 local x,y,z forces =   -1.3788E+03    4.3550E+03   -6.0659E+04  setid=       0
 node=    98 local x,y,z forces =   -1.1366E+03    5.0038E+03   -6.1131E+04  setid=       0
 node=   103 local x,y,z forces =   -7.6268E+02    5.8653E+03   -6.1785E+04  setid=       0
 node=   108 local x,y,z forces =    1.5909E+02    6.2053E+03   -6.2820E+04  setid=       0
 node=   113 local x,y,z forces =    1.8259E+03    7.1274E+03   -6.4200E+04  setid=       0
 node=   118 local x,y,z forces =    5.1657E+03    1.0265E+04   -6.6797E+04  setid=       0
 node=   123 local x,y,z forces =    4.7878E+03    1.2403E+04   -3.5046E+04  setid=       0
 node=  6253 local x,y,z forces =    4.7914E+03   -1.2399E+04    0.0000E+00  setid=       0
 node=  6258 local x,y,z forces =    5.1731E+03   -1.0265E+04    0.0000E+00  setid=       0
 node=  6263 local x,y,z forces =    1.8334E+03   -7.1274E+03    0.0000E+00  setid=       0
 node=  6268 local x,y,z forces =    1.6669E+02   -6.2053E+03    0.0000E+00  setid=       0
 node=  6273 local x,y,z forces =   -7.5505E+02   -5.8653E+03    0.0000E+00  setid=       0
 node=  6278 local x,y,z forces =   -1.1289E+03   -5.0038E+03    0.0000E+00  setid=       0
 node=  6283 local x,y,z forces =   -1.3712E+03   -4.3550E+03    0.0000E+00  setid=       0
 node=  6288 local x,y,z forces =   -1.4710E+03   -3.5653E+03    0.0000E+00  setid=       0
 node=  6293 local x,y,z forces =   -1.5418E+03   -2.8635E+03    0.0000E+00  setid=       0
 node=  6298 local x,y,z forces =   -1.5706E+03   -2.1273E+03    0.0000E+00  setid=       0
 node=  6303 local x,y,z forces =   -1.5931E+03   -1.4199E+03    0.0000E+00  setid=       0
 node=  6308 local x,y,z forces =   -1.6000E+03   -7.0655E+02    0.0000E+00  setid=       0
 node=  6313 local x,y,z forces =   -1.6050E+03   -1.8099E-09    0.0000E+00  setid=       0
 node=  6318 local x,y,z forces =   -1.6000E+03    7.0655E+02    0.0000E+00  setid=       0
 node=  6323 local x,y,z forces =   -1.5931E+03    1.4199E+03    0.0000E+00  setid=       0
 node=  6328 local x,y,z forces =   -1.5706E+03    2.1273E+03    0.0000E+00  setid=       0
 node=  6333 local x,y,z forces =   -1.5418E+03    2.8635E+03    0.0000E+00  setid=       0
 node=  6338 local x,y,z forces =   -1.4710E+03    3.5653E+03    0.0000E+00  setid=       0
 node=  6343 local x,y,z forces =   -1.3712E+03    4.3550E+03    0.0000E+00  setid=       0
 node=  6348 local x,y,z forces =   -1.1289E+03    5.0038E+03    0.0000E+00  setid=       0
 node=  6353 local x,y,z forces =   -7.5505E+02    5.8653E+03    0.0000E+00  setid=       0
 node=  6358 local x,y,z forces =    1.6669E+02    6.2053E+03    0.0000E+00  setid=       0
 node=  6363 local x,y,z forces =    1.8334E+03    7.1274E+03    0.0000E+00  setid=       0
 node=  6368 local x,y,z forces =    5.1731E+03    1.0265E+04    0.0000E+00  setid=       0
 node=  6373 local x,y,z forces =    4.7914E+03    1.2399E+04    0.0000E+00  setid=       0
             force resultants   =    3.3901E+02   -4.5620E-09   -1.4847E+06
 output at time =   3.00000E-03
 node=     3 local x,y,z forces =    5.2978E+03   -1.2433E+04   -3.5136E+04  setid=       0
 node=     8 local x,y,z forces =    5.7157E+03   -1.0263E+04   -6.6911E+04  setid=       0
 node=    13 local x,y,z forces =    2.0196E+03   -7.1266E+03   -6.4263E+04  setid=       0
 node=    18 local x,y,z forces =    1.7501E+02   -6.2048E+03   -6.2858E+04  setid=       0
 node=    23 local x,y,z forces =   -8.4506E+02   -5.8650E+03   -6.1809E+04  setid=       0
 node=    28 local x,y,z forces =   -1.2588E+03   -5.0038E+03   -6.1149E+04  setid=       0
 node=    33 local x,y,z forces =   -1.5269E+03   -4.3551E+03   -6.0673E+04  setid=       0
 node=    38 local x,y,z forces =   -1.6374E+03   -3.5654E+03   -6.0353E+04  setid=       0
 node=    43 local x,y,z forces =   -1.7157E+03   -2.8637E+03   -6.0120E+04  setid=       0
 node=    48 local x,y,z forces =   -1.7476E+03   -2.1274E+03   -5.9962E+04  setid=       0
 node=    53 local x,y,z forces =   -1.7725E+03   -1.4201E+03   -5.9857E+04  setid=       0
 node=    58 local x,y,z forces =   -1.7802E+03   -7.0661E+02   -5.9798E+04  setid=       0
 node=    63 local x,y,z forces =   -1.7857E+03   -2.9413E-09   -5.9778E+04  setid=       0
 node=    68 local x,y,z forces =   -1.7802E+03    7.0661E+02   -5.9798E+04  setid=       0
 node=    73 local x,y,z forces =   -1.7725E+03    1.4201E+03   -5.9857E+04  setid=       0
 node=    78 local x,y,z forces =   -1.7476E+03    2.1274E+03   -5.9962E+04  setid=       0
 node=    83 local x,y,z forces =   -1.7157E+03    2.8637E+03   -6.0120E+04  setid=       0
 node=    88 local x,y,z forces =   -1.6374E+03    3.5654E+03   -6.0353E+04  setid=       0
 node=    93 local x,y,z forces =   -1.5269E+03    4.3551E+03   -6.0673E+04  setid=       0
 node=    98 local x,y,z forces =   -1.2588E+03    5.0038E+03   -6.1149E+04  setid=       0
 node=   103 local x,y,z forces =   -8.4506E+02    5.8650E+03   -6.1809E+04  setid=       0
 node=   108 local x,y,z forces =    1.7501E+02    6.2048E+03   -6.2858E+04  setid=       0
 node=   113 local x,y,z forces =    2.0196E+03    7.1266E+03   -6.4263E+04  setid=       0
 node=   118 local x,y,z forces =    5.7157E+03    1.0263E+04   -6.6911E+04  setid=       0
 node=   123 local x,y,z forces =    5.2978E+03    1.2433E+04   -3.5136E+04  setid=       0
 node=  6253 local x,y,z forces =    5.3002E+03   -1.2432E+04    0.0000E+00  setid=       0
 node=  6258 local x,y,z forces =    5.7205E+03   -1.0263E+04    0.0000E+00  setid=       0
 node=  6263 local x,y,z forces =    2.0245E+03   -7.1267E+03    0.0000E+00  setid=       0
 node=  6268 local x,y,z forces =    1.7995E+02   -6.2049E+03    0.0000E+00  setid=       0
 node=  6273 local x,y,z forces =   -8.4011E+02   -5.8651E+03    0.0000E+00  setid=       0
 node=  6278 local x,y,z forces =   -1.2539E+03   -5.0038E+03    0.0000E+00  setid=       0
 node=  6283 local x,y,z forces =   -1.5220E+03   -4.3551E+03    0.0000E+00  setid=       0
 node=  6288 local x,y,z forces =   -1.6325E+03   -3.5654E+03    0.0000E+00  setid=       0
 node=  6293 local x,y,z forces =   -1.7108E+03   -2.8637E+03    0.0000E+00  setid=       0
 node=  6298 local x,y,z forces =   -1.7427E+03   -2.1275E+03    0.0000E+00  setid=       0
 node=  6303 local x,y,z forces =   -1.7676E+03   -1.4201E+03    0.0000E+00  setid=       0
 node=  6308 local x,y,z forces =   -1.7752E+03   -7.0662E+02    0.0000E+00  setid=       0
 node=  6313 local x,y,z forces =   -1.7807E+03   -5.2623E-09    0.0000E+00  setid=       0
 node=  6318 local x,y,z forces =   -1.7752E+03    7.0662E+02    0.0000E+00  setid=       0
 node=  6323 local x,y,z forces =   -1.7676E+03    1.4201E+03    0.0000E+00  setid=       0
 node=  6328 local x,y,z forces =   -1.7427E+03    2.1275E+03    0.0000E+00  setid=       0
 node=  6333 local x,y,z forces =   -1.7108E+03    2.8637E+03    0.0000E+00  setid=       0
 node=  6338 local x,y,z forces =   -1.6325E+03    3.5654E+03    0.0000E+00  setid=       0
 node=  6343 local x,y,z forces =   -1.5220E+03    4.3551E+03    0.0000E+00  setid=       0
 node=  6348 local x,y,z forces =   -1.2539E+03    5.0038E+03    0.0000E+00  setid=       0
 node=  6353 local x,y,z forces =   -8.4011E+02    5.8651E+03    0.0000E+00  setid=       0
 node=  6358 local x,y,z forces =    1.7995E+02    6.2049E+03    0.0000E+00  setid=       0
 node=  6363 local x,y,z forces =    2.0245E+03    7.1267E+03    0.0000E+00  setid=       0
 node=  6368 local x,y,z forces =    5.7205E+03    1.0263E+04    0.0000E+00  setid=       0
 node=  6373 local x,y,z forces =    5.3002E+03    1.2432E+04    0.0000E+00  setid=       0
             force resultants   =    2.4190E+02    1.9154E-09   -1.4856E+06
 output at time =   3.50000E-03
 node=     3 local x,y,z forces =    5.7605E+03   -1.2445E+04   -3.5221E+04  setid=       0
 node=     8 local x,y,z forces =    6.2145E+03   -1.0261E+04   -6.7013E+04  setid=       0
 node=    13 local x,y,z forces =    2.1953E+03   -7.1256E+03   -6.4314E+04  setid=       0
 node=    18 local x,y,z forces =    1.8952E+02   -6.2042E+03   -6.2884E+04  setid=       0
 node=    23 local x,y,z forces =   -9.1969E+02   -5.8646E+03   -6.1821E+04  setid=       0
 node=    28 local x,y,z forces =   -1.3697E+03   -5.0035E+03   -6.1155E+04  setid=       0
 node=    33 local x,y,z forces =   -1.6611E+03   -4.3550E+03   -6.0676E+04  setid=       0
 node=    38 local x,y,z forces =   -1.7814E+03   -3.5655E+03   -6.0354E+04  setid=       0
 node=    43 local x,y,z forces =   -1.8665E+03   -2.8637E+03   -6.0121E+04  setid=       0
 node=    48 local x,y,z forces =   -1.9012E+03   -2.1275E+03   -5.9963E+04  setid=       0
 node=    53 local x,y,z forces =   -1.9283E+03   -1.4201E+03   -5.9856E+04  setid=       0
 node=    58 local x,y,z forces =   -1.9366E+03   -7.0666E+02   -5.9797E+04  setid=       0
 node=    63 local x,y,z forces =   -1.9426E+03   -4.6730E-09   -5.9778E+04  setid=       0
 node=    68 local x,y,z forces =   -1.9366E+03    7.0666E+02   -5.9797E+04  setid=       0
 node=    73 local x,y,z forces =   -1.9283E+03    1.4201E+03   -5.9856E+04  setid=       0
 node=    78 local x,y,z forces =   -1.9012E+03    2.1275E+03   -5.9963E+04  setid=       0
 node=    83 local x,y,z forces =   -1.8665E+03    2.8637E+03   -6.0121E+04  setid=       0
 node=    88 local x,y,z forces =   -1.7814E+03    3.5655E+03   -6.0354E+04  setid=       0
 node=    93 local x,y,z forces =   -1.6611E+03    4.3550E+03   -6.0676E+04  setid=       0
 node=    98 local x,y,z forces =   -1.3697E+03    5.0035E+03   -6.1155E+04  setid=       0
 node=   103 local x,y,z forces =   -9.1969E+02    5.8646E+03   -6.1821E+04  setid=       0
 node=   108 local x,y,z forces =    1.8952E+02    6.2042E+03   -6.2884E+04  setid=       0
 node=   113 local x,y,z forces =    2.1953E+03    7.1256E+03   -6.4314E+04  setid=       0
 node=   118 local x,y,z forces =    6.2145E+03    1.0261E+04   -6.7013E+04  setid=       0
 node=   123 local x,y,z forces =    5.7605E+03    1.2445E+04   -3.5221E+04  setid=       0
 node=  6253 local x,y,z forces =    5.7622E+03   -1.2445E+04    0.0000E+00  setid=       0
 node=  6258 local x,y,z forces =    6.2179E+03   -1.0261E+04    0.0000E+00  setid=       0
 node=  6263 local x,y,z forces =    2.1987E+03   -7.1256E+03    0.0000E+00  setid=       0
 node=  6268 local x,y,z forces =    1.9300E+02   -6.2042E+03    0.0000E+00  setid=       0
 node=  6273 local x,y,z forces =   -9.1621E+02   -5.8646E+03    0.0000E+00  setid=       0
 node=  6278 local x,y,z forces =   -1.3662E+03   -5.0035E+03    0.0000E+00  setid=       0
 node=  6283 local x,y,z forces =   -1.6577E+03   -4.3550E+03    0.0000E+00  setid=       0
 node=  6288 local x,y,z forces =   -1.7779E+03   -3.5655E+03    0.0000E+00  setid=       0
 node=  6293 local x,y,z forces =   -1.8630E+03   -2.8638E+03    0.0000E+00  setid=       0
 node=  6298 local x,y,z forces =   -1.8977E+03   -2.1275E+03    0.0000E+00  setid=       0
 node=  6303 local x,y,z forces =   -1.9248E+03   -1.4201E+03    0.0000E+00  setid=       0
 node=  6308 local x,y,z forces =   -1.9331E+03   -7.0666E+02    0.0000E+00  setid=       0
 node=  6313 local x,y,z forces =   -1.9391E+03   -3.1778E-09    0.0000E+00  setid=       0
 node=  6318 local x,y,z forces =   -1.9331E+03    7.0666E+02    0.0000E+00  setid=       0
 node=  6323 local x,y,z forces =   -1.9248E+03    1.4201E+03    0.0000E+00  setid=       0
 node=  6328 local x,y,z forces =   -1.8977E+03    2.1275E+03    0.0000E+00  setid=       0
 node=  6333 local x,y,z forces =   -1.8630E+03    2.8638E+03    0.0000E+00  setid=       0
 node=  6338 local x,y,z forces =   -1.7779E+03    3.5655E+03    0.0000E+00  setid=       0
 node=  6343 local x,y,z forces =   -1.6577E+03    4.3550E+03    0.0000E+00  setid=       0
 node=  6348 local x,y,z forces =   -1.3662E+03    5.0035E+03    0.0000E+00  setid=       0
 node=  6353 local x,y,z forces =   -9.1621E+02    5.8646E+03    0.0000E+00  setid=       0
 node=  6358 local x,y,z forces =    1.9300E+02    6.2042E+03    0.0000E+00  setid=       0
 node=  6363 local x,y,z forces =    2.1987E+03    7.1256E+03    0.0000E+00  setid=       0
 node=  6368 local x,y,z forces =    6.2179E+03    1.0261E+04    0.0000E+00  setid=       0
 node=  6373 local x,y,z forces =    5.7622E+03    1.2445E+04    0.0000E+00  setid=       0
             force resultants   =    1.8004E+02   -2.1028E-09   -1.4861E+06
 output at time =   4.00000E-03
 node=     3 local x,y,z forces =    6.0831E+03   -1.3232E+04   -3.6297E+04  setid=       0
 node=     8 local x,y,z forces =    6.5093E+03   -1.0519E+04   -6.9029E+04  setid=       0
 node=    13 local x,y,z forces =    2.2461E+03   -7.3042E+03   -6.6225E+04  setid=       0
 node=    18 local x,y,z forces =    1.1837E+02   -6.3596E+03   -6.4739E+04  setid=       0
 node=    23 local x,y,z forces =   -1.0584E+03   -6.0116E+03   -6.3638E+04  setid=       0
 node=    28 local x,y,z forces =   -1.5339E+03   -5.1290E+03   -6.2951E+04  setid=       0
 node=    33 local x,y,z forces =   -1.8423E+03   -4.4643E+03   -6.2457E+04  setid=       0
 node=    38 local x,y,z forces =   -1.9688E+03   -3.6550E+03   -6.2126E+04  setid=       0
 node=    43 local x,y,z forces =   -2.0585E+03   -2.9357E+03   -6.1885E+04  setid=       0
 node=    48 local x,y,z forces =   -2.0947E+03   -2.1810E+03   -6.1723E+04  setid=       0
 node=    53 local x,y,z forces =   -2.1231E+03   -1.4559E+03   -6.1614E+04  setid=       0
 node=    58 local x,y,z forces =   -2.1316E+03   -7.2444E+02   -6.1553E+04  setid=       0
 node=    63 local x,y,z forces =   -2.1380E+03   -1.2606E-09   -6.1533E+04  setid=       0
 node=    68 local x,y,z forces =   -2.1316E+03    7.2444E+02   -6.1553E+04  setid=       0
 node=    73 local x,y,z forces =   -2.1231E+03    1.4559E+03   -6.1614E+04  setid=       0
 node=    78 local x,y,z forces =   -2.0947E+03    2.1810E+03   -6.1723E+04  setid=       0
 node=    83 local x,y,z forces =   -2.0585E+03    2.9357E+03   -6.1885E+04  setid=       0
 node=    88 local x,y,z forces =   -1.9688E+03    3.6550E+03   -6.2126E+04  setid=       0
 node=    93 local x,y,z forces =   -1.8423E+03    4.4643E+03   -6.2457E+04  setid=       0
 node=    98 local x,y,z forces =   -1.5339E+03    5.1290E+03   -6.2951E+04  setid=       0
 node=   103 local x,y,z forces =   -1.0584E+03    6.0116E+03   -6.3638E+04  setid=       0
 node=   108 local x,y,z forces =    1.1837E+02    6.3596E+03   -6.4739E+04  setid=       0
 node=   113 local x,y,z forces =    2.2461E+03    7.3042E+03   -6.6225E+04  setid=       0
 node=   118 local x,y,z forces =    6.5093E+03    1.0519E+04   -6.9029E+04  setid=       0
 node=   123 local x,y,z forces =    6.0831E+03    1.3232E+04   -3.6297E+04  setid=       0
 node=  6253 local x,y,z forces =    6.0033E+03   -1.3145E+04    0.0000E+00  setid=       0
 node=  6258 local x,y,z forces =    6.3497E+03   -1.0519E+04    0.0000E+00  setid=       0
 node=  6263 local x,y,z forces =    2.0867E+03   -7.3042E+03    0.0000E+00  setid=       0
 node=  6268 local x,y,z forces =   -4.1022E+01   -6.3596E+03    0.0000E+00  setid=       0
 node=  6273 local x,y,z forces =   -1.2177E+03   -6.0116E+03    0.0000E+00  setid=       0
 node=  6278 local x,y,z forces =   -1.6932E+03   -5.1290E+03    0.0000E+00  setid=       0
 node=  6283 local x,y,z forces =   -2.0016E+03   -4.4643E+03    0.0000E+00  setid=       0
 node=  6288 local x,y,z forces =   -2.1280E+03   -3.6550E+03    0.0000E+00  setid=       0
 node=  6293 local x,y,z forces =   -2.2177E+03   -2.9357E+03    0.0000E+00  setid=       0
 node=  6298 local x,y,z forces =   -2.2539E+03   -2.1810E+03    0.0000E+00  setid=       0
 node=  6303 local x,y,z forces =   -2.2823E+03   -1.4559E+03    0.0000E+00  setid=       0
 node=  6308 local x,y,z forces =   -2.2908E+03   -7.2444E+02    0.0000E+00  setid=       0
 node=  6313 local x,y,z forces =   -2.2972E+03   -2.1628E-09    0.0000E+00  setid=       0
 node=  6318 local x,y,z forces =   -2.2908E+03    7.2444E+02    0.0000E+00  setid=       0
 node=  6323 local x,y,z forces =   -2.2823E+03    1.4559E+03    0.0000E+00  setid=       0
 node=  6328 local x,y,z forces =   -2.2539E+03    2.1810E+03    0.0000E+00  setid=       0
 node=  6333 local x,y,z forces =   -2.2177E+03    2.9357E+03    0.0000E+00  setid=       0
 node=  6338 local x,y,z forces =   -2.1280E+03    3.6550E+03    0.0000E+00  setid=       0
 node=  6343 local x,y,z forces =   -2.0016E+03    4.4643E+03    0.0000E+00  setid=       0
 node=  6348 local x,y,z forces =   -1.6932E+03    5.1290E+03    0.0000E+00  setid=       0
 node=  6353 local x,y,z forces =   -1.2177E+03    6.0116E+03    0.0000E+00  setid=       0
 node=  6358 local x,y,z forces =   -4.1022E+01    6.3596E+03    0.0000E+00  setid=       0
 node=  6363 local x,y,z forces =    2.0867E+03    7.3042E+03    0.0000E+00  setid=       0
 node=  6368 local x,y,z forces =    6.3497E+03    1.0519E+04    0.0000E+00  setid=       0
 node=  6373 local x,y,z forces =    6.0033E+03    1.3145E+04    0.0000E+00  setid=       0
             force resultants   =   -7.5166E+03   -1.5385E-08   -1.5300E+06
 output at time =   4.50000E-03
 node=     3 local x,y,z forces =    6.4887E+03   -1.3078E+04   -3.6188E+04  setid=       0
 node=     8 local x,y,z forces =    6.9532E+03   -1.0468E+04   -6.8760E+04  setid=       0
 node=    13 local x,y,z forces =    2.4094E+03   -7.2696E+03   -6.5916E+04  setid=       0
 node=    18 local x,y,z forces =    1.4164E+02   -6.3298E+03   -6.4412E+04  setid=       0
 node=    23 local x,y,z forces =   -1.1125E+03   -5.9835E+03   -6.3302E+04  setid=       0
 node=    28 local x,y,z forces =   -1.6197E+03   -5.1053E+03   -6.2612E+04  setid=       0
 node=    33 local x,y,z forces =   -1.9486E+03   -4.4437E+03   -6.2116E+04  setid=       0
 node=    38 local x,y,z forces =   -2.0836E+03   -3.6383E+03   -6.1785E+04  setid=       0
 node=    43 local x,y,z forces =   -2.1793E+03   -2.9223E+03   -6.1545E+04  setid=       0
 node=    48 local x,y,z forces =   -2.2180E+03   -2.1711E+03   -6.1383E+04  setid=       0
 node=    53 local x,y,z forces =   -2.2484E+03   -1.4493E+03   -6.1274E+04  setid=       0
 node=    58 local x,y,z forces =   -2.2576E+03   -7.2116E+02   -6.1214E+04  setid=       0
 node=    63 local x,y,z forces =   -2.2643E+03   -1.7990E-09   -6.1193E+04  setid=       0
 node=    68 local x,y,z forces =   -2.2576E+03    7.2116E+02   -6.1214E+04  setid=       0
 node=    73 local x,y,z forces =   -2.2484E+03    1.4493E+03   -6.1274E+04  setid=       0
 node=    78 local x,y,z forces =   -2.2180E+03    2.1711E+03   -6.1383E+04  setid=       0
 node=    83 local x,y,z forces =   -2.1793E+03    2.9223E+03   -6.1545E+04  setid=       0
 node=    88 local x,y,z forces =   -2.0836E+03    3.6383E+03   -6.1785E+04  setid=       0
 node=    93 local x,y,z forces =   -1.9486E+03    4.4437E+03   -6.2116E+04  setid=       0
 node=    98 local x,y,z forces =   -1.6197E+03    5.1053E+03   -6.2612E+04  setid=       0
 node=   103 local x,y,z forces =   -1.1125E+03    5.9835E+03   -6.3302E+04  setid=       0
 node=   108 local x,y,z forces =    1.4164E+02    6.3298E+03   -6.4412E+04  setid=       0
 node=   113 local x,y,z forces =    2.4094E+03    7.2696E+03   -6.5916E+04  setid=       0
 node=   118 local x,y,z forces =    6.9532E+03    1.0468E+04   -6.8760E+04  setid=       0
 node=   123 local x,y,z forces =    6.4887E+03    1.3078E+04   -3.6188E+04  setid=       0
 node=  6253 local x,y,z forces =    6.4185E+03   -1.3006E+04    0.0000E+00  setid=       0
 node=  6258 local x,y,z forces =    6.8128E+03   -1.0468E+04    0.0000E+00  setid=       0
 node=  6263 local x,y,z forces =    2.2691E+03   -7.2696E+03    0.0000E+00  setid=       0
 node=  6268 local x,y,z forces =    1.3592E+00   -6.3298E+03    0.0000E+00  setid=       0
 node=  6273 local x,y,z forces =   -1.2528E+03   -5.9835E+03    0.0000E+00  setid=       0
 node=  6278 local x,y,z forces =   -1.7599E+03   -5.1053E+03    0.0000E+00  setid=       0
 node=  6283 local x,y,z forces =   -2.0888E+03   -4.4437E+03    0.0000E+00  setid=       0
 node=  6288 local x,y,z forces =   -2.2237E+03   -3.6383E+03    0.0000E+00  setid=       0
 node=  6293 local x,y,z forces =   -2.3195E+03   -2.9223E+03    0.0000E+00  setid=       0
 node=  6298 local x,y,z forces =   -2.3581E+03   -2.1711E+03    0.0000E+00  setid=       0
 node=  6303 local x,y,z forces =   -2.3885E+03   -1.4493E+03    0.0000E+00  setid=       0
 node=  6308 local x,y,z forces =   -2.3977E+03   -7.2116E+02    0.0000E+00  setid=       0
 node=  6313 local x,y,z forces =   -2.4044E+03   -2.9922E-09    0.0000E+00  setid=       0
 node=  6318 local x,y,z forces =   -2.3977E+03    7.2116E+02    0.0000E+00  setid=       0
 node=  6323 local x,y,z forces =   -2.3885E+03    1.4493E+03    0.0000E+00  setid=       0
 node=  6328 local x,y,z forces =   -2.3581E+03    2.1711E+03    0.0000E+00  setid=       0
 node=  6333 local x,y,z forces =   -2.3195E+03    2.9223E+03    0.0000E+00  setid=       0
 node=  6338 local x,y,z forces =   -2.2237E+03    3.6383E+03    0.0000E+00  setid=       0
 node=  6343 local x,y,z forces =   -2.0888E+03    4.4437E+03    0.0000E+00  setid=       0
 node=  6348 local x,y,z forces =   -1.7599E+03    5.1053E+03    0.0000E+00  setid=       0
 node=  6353 local x,y,z forces =   -1.2528E+03    5.9835E+03    0.0000E+00  setid=       0
 node=  6358 local x,y,z forces =    1.3592E+00    6.3298E+03    0.0000E+00  setid=       0
 node=  6363 local x,y,z forces =    2.2691E+03    7.2696E+03    0.0000E+00  setid=       0
 node=  6368 local x,y,z forces =    6.8128E+03    1.0468E+04    0.0000E+00  setid=       0
 node=  6373 local x,y,z forces =    6.4185E+03    1.3006E+04    0.0000E+00  setid=       0
             force resultants   =   -6.5927E+03    1.4719E-08   -1.5222E+06
 output at time =   5.00000E-03
 node=     3 local x,y,z forces =    6.8787E+03   -1.2926E+04   -3.6088E+04  setid=       0
 node=     8 local x,y,z forces =    7.3809E+03   -1.0420E+04   -6.8505E+04  setid=       0
 node=    13 local x,y,z forces =    2.5674E+03   -7.2365E+03   -6.5621E+04  setid=       0
 node=    18 local x,y,z forces =    1.6502E+02   -6.3012E+03   -6.4097E+04  setid=       0
 node=    23 local x,y,z forces =   -1.1636E+03   -5.9567E+03   -6.2977E+04  setid=       0
 node=    28 local x,y,z forces =   -1.7012E+03   -5.0826E+03   -6.2285E+04  setid=       0
 node=    33 local x,y,z forces =   -2.0498E+03   -4.4241E+03   -6.1788E+04  setid=       0
 node=    38 local x,y,z forces =   -2.1930E+03   -3.6223E+03   -6.1457E+04  setid=       0
 node=    43 local x,y,z forces =   -2.2945E+03   -2.9096E+03   -6.1217E+04  setid=       0
 node=    48 local x,y,z forces =   -2.3357E+03   -2.1617E+03   -6.1055E+04  setid=       0
 node=    53 local x,y,z forces =   -2.3679E+03   -1.4430E+03   -6.0946E+04  setid=       0
 node=    58 local x,y,z forces =   -2.3777E+03   -7.1804E+02   -6.0886E+04  setid=       0
 node=    63 local x,y,z forces =   -2.3848E+03   -8.0090E-09   -6.0866E+04  setid=       0
 node=    68 local x,y,z forces =   -2.3777E+03    7.1804E+02   -6.0886E+04  setid=       0
 node=    73 local x,y,z forces =   -2.3679E+03    1.4430E+03   -6.0946E+04  setid=       0
 node=    78 local x,y,z forces =   -2.3357E+03    2.1617E+03   -6.1055E+04  setid=       0
 node=    83 local x,y,z forces =   -2.2945E+03    2.9096E+03   -6.1217E+04  setid=       0
 node=    88 local x,y,z forces =   -2.1930E+03    3.6223E+03   -6.1457E+04  setid=       0
 node=    93 local x,y,z forces =   -2.0498E+03    4.4241E+03   -6.1788E+04  setid=       0
 node=    98 local x,y,z forces =   -1.7012E+03    5.0826E+03   -6.2285E+04  setid=       0
 node=   103 local x,y,z forces =   -1.1636E+03    5.9567E+03   -6.2977E+04  setid=       0
 node=   108 local x,y,z forces =    1.6502E+02    6.3012E+03   -6.4097E+04  setid=       0
 node=   113 local x,y,z forces =    2.5674E+03    7.2365E+03   -6.5621E+04  setid=       0
 node=   118 local x,y,z forces =    7.3809E+03    1.0420E+04   -6.8505E+04  setid=       0
 node=   123 local x,y,z forces =    6.8787E+03    1.2926E+04   -3.6088E+04  setid=       0
 node=  6253 local x,y,z forces =    6.8210E+03   -1.2870E+04    0.0000E+00  setid=       0
 node=  6258 local x,y,z forces =    7.2658E+03   -1.0420E+04    0.0000E+00  setid=       0
 node=  6263 local x,y,z forces =    2.4522E+03   -7.2365E+03    0.0000E+00  setid=       0
 node=  6268 local x,y,z forces =    4.9939E+01   -6.3012E+03    0.0000E+00  setid=       0
 node=  6273 local x,y,z forces =   -1.2786E+03   -5.9567E+03    0.0000E+00  setid=       0
 node=  6278 local x,y,z forces =   -1.8162E+03   -5.0826E+03    0.0000E+00  setid=       0
 node=  6283 local x,y,z forces =   -2.1648E+03   -4.4241E+03    0.0000E+00  setid=       0
 node=  6288 local x,y,z forces =   -2.3079E+03   -3.6223E+03    0.0000E+00  setid=       0
 node=  6293 local x,y,z forces =   -2.4095E+03   -2.9096E+03    0.0000E+00  setid=       0
 node=  6298 local x,y,z forces =   -2.4506E+03   -2.1617E+03    0.0000E+00  setid=       0
 node=  6303 local x,y,z forces =   -2.4828E+03   -1.4430E+03    0.0000E+00  setid=       0
 node=  6308 local x,y,z forces =   -2.4926E+03   -7.1804E+02    0.0000E+00  setid=       0
 node=  6313 local x,y,z forces =   -2.4998E+03   -4.7003E-09    0.0000E+00  setid=       0
 node=  6318 local x,y,z forces =   -2.4926E+03    7.1804E+02    0.0000E+00  setid=       0
 node=  6323 local x,y,z forces =   -2.4828E+03    1.4430E+03    0.0000E+00  setid=       0
 node=  6328 local x,y,z forces =   -2.4506E+03    2.1617E+03    0.0000E+00  setid=       0
 node=  6333 local x,y,z forces =   -2.4095E+03    2.9096E+03    0.0000E+00  setid=       0
 node=  6338 local x,y,z forces =   -2.3079E+03    3.6223E+03    0.0000E+00  setid=       0
 node=  6343 local x,y,z forces =   -2.1648E+03    4.4241E+03    0.0000E+00  setid=       0
 node=  6348 local x,y,z forces =   -1.8162E+03    5.0826E+03    0.0000E+00  setid=       0
 node=  6353 local x,y,z forces =   -1.2786E+03    5.9567E+03    0.0000E+00  setid=       0
 node=  6358 local x,y,z forces =    4.9939E+01    6.3012E+03    0.0000E+00  setid=       0
 node=  6363 local x,y,z forces =    2.4522E+03    7.2365E+03    0.0000E+00  setid=       0
 node=  6368 local x,y,z forces =    7.2658E+03    1.0420E+04    0.0000E+00  setid=       0
 node=  6373 local x,y,z forces =    6.8210E+03    1.2870E+04    0.0000E+00  setid=       0
             force resultants   =   -5.4953E+03   -5.9494E-08   -1.5147E+06
 output at time =   5.50000E-03
 node=     3 local x,y,z forces =    7.2456E+03   -1.2820E+04   -3.6039E+04  setid=       0
 node=     8 local x,y,z forces =    7.7823E+03   -1.0384E+04   -6.8349E+04  setid=       0
 node=    13 local x,y,z forces =    2.7145E+03   -7.2122E+03   -6.5422E+04  setid=       0
 node=    18 local x,y,z forces =    1.8538E+02   -6.2804E+03   -6.3877E+04  setid=       0
 node=    23 local x,y,z forces =   -1.2133E+03   -5.9371E+03   -6.2746E+04  setid=       0
 node=    28 local x,y,z forces =   -1.7796E+03   -5.0660E+03   -6.2050E+04  setid=       0
 node=    33 local x,y,z forces =   -2.1467E+03   -4.4098E+03   -6.1551E+04  setid=       0
 node=    38 local x,y,z forces =   -2.2977E+03   -3.6107E+03   -6.1220E+04  setid=       0
 node=    43 local x,y,z forces =   -2.4047E+03   -2.9003E+03   -6.0979E+04  setid=       0
 node=    48 local x,y,z forces =   -2.4481E+03   -2.1549E+03   -6.0818E+04  setid=       0
 node=    53 local x,y,z forces =   -2.4821E+03   -1.4384E+03   -6.0709E+04  setid=       0
 node=    58 local x,y,z forces =   -2.4924E+03   -7.1579E+02   -6.0649E+04  setid=       0
 node=    63 local x,y,z forces =   -2.5000E+03   -2.1682E-09   -6.0629E+04  setid=       0
 node=    68 local x,y,z forces =   -2.4924E+03    7.1579E+02   -6.0649E+04  setid=       0
 node=    73 local x,y,z forces =   -2.4821E+03    1.4384E+03   -6.0709E+04  setid=       0
 node=    78 local x,y,z forces =   -2.4481E+03    2.1549E+03   -6.0818E+04  setid=       0
 node=    83 local x,y,z forces =   -2.4047E+03    2.9003E+03   -6.0979E+04  setid=       0
 node=    88 local x,y,z forces =   -2.2977E+03    3.6107E+03   -6.1220E+04  setid=       0
 node=    93 local x,y,z forces =   -2.1467E+03    4.4098E+03   -6.1551E+04  setid=       0
 node=    98 local x,y,z forces =   -1.7796E+03    5.0660E+03   -6.2050E+04  setid=       0
 node=   103 local x,y,z forces =   -1.2133E+03    5.9371E+03   -6.2746E+04  setid=       0
 node=   108 local x,y,z forces =    1.8538E+02    6.2804E+03   -6.3877E+04  setid=       0
 node=   113 local x,y,z forces =    2.7145E+03    7.2122E+03   -6.5422E+04  setid=       0
 node=   118 local x,y,z forces =    7.7823E+03    1.0384E+04   -6.8349E+04  setid=       0
 node=   123 local x,y,z forces =    7.2456E+03    1.2820E+04   -3.6039E+04  setid=       0
 node=  6253 local x,y,z forces =    7.1975E+03   -1.2776E+04    0.0000E+00  setid=       0
 node=  6258 local x,y,z forces =    7.6861E+03   -1.0384E+04    0.0000E+00  setid=       0
 node=  6263 local x,y,z forces =    2.6184E+03   -7.2122E+03    0.0000E+00  setid=       0
 node=  6268 local x,y,z forces =    8.9233E+01   -6.2804E+03    0.0000E+00  setid=       0
 node=  6273 local x,y,z forces =   -1.3094E+03   -5.9371E+03    0.0000E+00  setid=       0
 node=  6278 local x,y,z forces =   -1.8757E+03   -5.0660E+03    0.0000E+00  setid=       0
 node=  6283 local x,y,z forces =   -2.2428E+03   -4.4098E+03    0.0000E+00  setid=       0
 node=  6288 local x,y,z forces =   -2.3937E+03   -3.6107E+03    0.0000E+00  setid=       0
 node=  6293 local x,y,z forces =   -2.5007E+03   -2.9003E+03    0.0000E+00  setid=       0
 node=  6298 local x,y,z forces =   -2.5441E+03   -2.1549E+03    0.0000E+00  setid=       0
 node=  6303 local x,y,z forces =   -2.5781E+03   -1.4384E+03    0.0000E+00  setid=       0
 node=  6308 local x,y,z forces =   -2.5884E+03   -7.1579E+02    0.0000E+00  setid=       0
 node=  6313 local x,y,z forces =   -2.5960E+03   -1.2820E-08    0.0000E+00  setid=       0
 node=  6318 local x,y,z forces =   -2.5884E+03    7.1579E+02    0.0000E+00  setid=       0
 node=  6323 local x,y,z forces =   -2.5781E+03    1.4384E+03    0.0000E+00  setid=       0
 node=  6328 local x,y,z forces =   -2.5441E+03    2.1549E+03    0.0000E+00  setid=       0
 node=  6333 local x,y,z forces =   -2.5007E+03    2.9003E+03    0.0000E+00  setid=       0
 node=  6338 local x,y,z forces =   -2.3937E+03    3.6107E+03    0.0000E+00  setid=       0
 node=  6343 local x,y,z forces =   -2.2428E+03    4.4098E+03    0.0000E+00  setid=       0
 node=  6348 local x,y,z forces =   -1.8757E+03    5.0660E+03    0.0000E+00  setid=       0
 node=  6353 local x,y,z forces =   -1.3094E+03    5.9371E+03    0.0000E+00  setid=       0
 node=  6358 local x,y,z forces =    8.9233E+01    6.2804E+03    0.0000E+00  setid=       0
 node=  6363 local x,y,z forces =    2.6184E+03    7.2122E+03    0.0000E+00  setid=       0
 node=  6368 local x,y,z forces =    7.6861E+03    1.0384E+04    0.0000E+00  setid=       0
 node=  6373 local x,y,z forces =    7.1975E+03    1.2776E+04    0.0000E+00  setid=       0
             force resultants   =   -4.6531E+03   -3.2824E-08   -1.5095E+06
 output at time =   6.00000E-03
 node=     3 local x,y,z forces =    7.5924E+03   -1.2745E+04   -3.6024E+04  setid=       0
 node=     8 local x,y,z forces =    8.1608E+03   -1.0357E+04   -6.8260E+04  setid=       0
 node=    13 local x,y,z forces =    2.8524E+03   -7.1940E+03   -6.5289E+04  setid=       0
 node=    18 local x,y,z forces =    2.0326E+02   -6.2648E+03   -6.3721E+04  setid=       0
 node=    23 local x,y,z forces =   -1.2618E+03   -5.9226E+03   -6.2579E+04  setid=       0
 node=    28 local x,y,z forces =   -1.8552E+03   -5.0538E+03   -6.1879E+04  setid=       0
 node=    33 local x,y,z forces =   -2.2398E+03   -4.3992E+03   -6.1377E+04  setid=       0
 node=    38 local x,y,z forces =   -2.3980E+03   -3.6022E+03   -6.1045E+04  setid=       0
 node=    43 local x,y,z forces =   -2.5102E+03   -2.8935E+03   -6.0804E+04  setid=       0
 node=    48 local x,y,z forces =   -2.5558E+03   -2.1499E+03   -6.0643E+04  setid=       0
 node=    53 local x,y,z forces =   -2.5914E+03   -1.4351E+03   -6.0534E+04  setid=       0
 node=    58 local x,y,z forces =   -2.6023E+03   -7.1414E+02   -6.0474E+04  setid=       0
 node=    63 local x,y,z forces =   -2.6102E+03   -7.1959E-09   -6.0454E+04  setid=       0
 node=    68 local x,y,z forces =   -2.6023E+03    7.1414E+02   -6.0474E+04  setid=       0
 node=    73 local x,y,z forces =   -2.5914E+03    1.4351E+03   -6.0534E+04  setid=       0
 node=    78 local x,y,z forces =   -2.5558E+03    2.1499E+03   -6.0643E+04  setid=       0
 node=    83 local x,y,z forces =   -2.5102E+03    2.8935E+03   -6.0804E+04  setid=       0
 node=    88 local x,y,z forces =   -2.3980E+03    3.6022E+03   -6.1045E+04  setid=       0
 node=    93 local x,y,z forces =   -2.2398E+03    4.3992E+03   -6.1377E+04  setid=       0
 node=    98 local x,y,z forces =   -1.8552E+03    5.0538E+03   -6.1879E+04  setid=       0
 node=   103 local x,y,z forces =   -1.2618E+03    5.9226E+03   -6.2579E+04  setid=       0
 node=   108 local x,y,z forces =    2.0326E+02    6.2648E+03   -6.3721E+04  setid=       0
 node=   113 local x,y,z forces =    2.8524E+03    7.1940E+03   -6.5289E+04  setid=       0
 node=   118 local x,y,z forces =    8.1608E+03    1.0357E+04   -6.8260E+04  setid=       0
 node=   123 local x,y,z forces =    7.5924E+03    1.2745E+04   -3.6024E+04  setid=       0
 node=  6253 local x,y,z forces =    7.5514E+03   -1.2709E+04    0.0000E+00  setid=       0
 node=  6258 local x,y,z forces =    8.0788E+03   -1.0357E+04    0.0000E+00  setid=       0
 node=  6263 local x,y,z forces =    2.7705E+03   -7.1940E+03    0.0000E+00  setid=       0
 node=  6268 local x,y,z forces =    1.2132E+02   -6.2648E+03    0.0000E+00  setid=       0
 node=  6273 local x,y,z forces =   -1.3437E+03   -5.9226E+03    0.0000E+00  setid=       0
 node=  6278 local x,y,z forces =   -1.9371E+03   -5.0538E+03    0.0000E+00  setid=       0
 node=  6283 local x,y,z forces =   -2.3217E+03   -4.3992E+03    0.0000E+00  setid=       0
 node=  6288 local x,y,z forces =   -2.4799E+03   -3.6022E+03    0.0000E+00  setid=       0
 node=  6293 local x,y,z forces =   -2.5921E+03   -2.8935E+03    0.0000E+00  setid=       0
 node=  6298 local x,y,z forces =   -2.6376E+03   -2.1499E+03    0.0000E+00  setid=       0
 node=  6303 local x,y,z forces =   -2.6733E+03   -1.4351E+03    0.0000E+00  setid=       0
 node=  6308 local x,y,z forces =   -2.6841E+03   -7.1414E+02    0.0000E+00  setid=       0
 node=  6313 local x,y,z forces =   -2.6920E+03   -4.8858E-09    0.0000E+00  setid=       0
 node=  6318 local x,y,z forces =   -2.6841E+03    7.1414E+02    0.0000E+00  setid=       0
 node=  6323 local x,y,z forces =   -2.6733E+03    1.4351E+03    0.0000E+00  setid=       0
 node=  6328 local x,y,z forces =   -2.6376E+03    2.1499E+03    0.0000E+00  setid=       0
 node=  6333 local x,y,z forces =   -2.5921E+03    2.8935E+03    0.0000E+00  setid=       0
 node=  6338 local x,y,z forces =   -2.4799E+03    3.6022E+03    0.0000E+00  setid=       0
 node=  6343 local x,y,z forces =   -2.3217E+03    4.3992E+03    0.0000E+00  setid=       0
 node=  6348 local x,y,z forces =   -1.9371E+03    5.0538E+03    0.0000E+00  setid=       0
 node=  6353 local x,y,z forces =   -1.3437E+03    5.9226E+03    0.0000E+00  setid=       0
 node=  6358 local x,y,z forces =    1.2132E+02    6.2648E+03    0.0000E+00  setid=       0
 node=  6363 local x,y,z forces =    2.7705E+03    7.1940E+03    0.0000E+00  setid=       0
 node=  6368 local x,y,z forces =    8.0788E+03    1.0357E+04    0.0000E+00  setid=       0
 node=  6373 local x,y,z forces =    7.5514E+03    1.2709E+04    0.0000E+00  setid=       0
             force resultants   =   -4.0088E+03   -6.2377E-08   -1.5057E+06
 output at time =   6.50000E-03
 node=     3 local x,y,z forces =    7.9221E+03   -1.2689E+04   -3.6033E+04  setid=       0
 node=     8 local x,y,z forces =    8.5199E+03   -1.0336E+04   -6.8216E+04  setid=       0
 node=    13 local x,y,z forces =    2.9827E+03   -7.1799E+03   -6.5198E+04  setid=       0
 node=    18 local x,y,z forces =    2.1928E+02   -6.2528E+03   -6.3607E+04  setid=       0
 node=    23 local x,y,z forces =   -1.3089E+03   -5.9114E+03   -6.2453E+04  setid=       0
 node=    28 local x,y,z forces =   -1.9281E+03   -5.0444E+03   -6.1748E+04  setid=       0
 node=    33 local x,y,z forces =   -2.3294E+03   -4.3912E+03   -6.1244E+04  setid=       0
 node=    38 local x,y,z forces =   -2.4946E+03   -3.5957E+03   -6.0911E+04  setid=       0
 node=    43 local x,y,z forces =   -2.6117E+03   -2.8884E+03   -6.0670E+04  setid=       0
 node=    48 local x,y,z forces =   -2.6592E+03   -2.1461E+03   -6.0508E+04  setid=       0
 node=    53 local x,y,z forces =   -2.6964E+03   -1.4326E+03   -6.0400E+04  setid=       0
 node=    58 local x,y,z forces =   -2.7078E+03   -7.1290E+02   -6.0340E+04  setid=       0
 node=    63 local x,y,z forces =   -2.7161E+03   -2.3283E-10   -6.0319E+04  setid=       0
 node=    68 local x,y,z forces =   -2.7078E+03    7.1290E+02   -6.0340E+04  setid=       0
 node=    73 local x,y,z forces =   -2.6964E+03    1.4326E+03   -6.0400E+04  setid=       0
 node=    78 local x,y,z forces =   -2.6592E+03    2.1461E+03   -6.0508E+04  setid=       0
 node=    83 local x,y,z forces =   -2.6117E+03    2.8884E+03   -6.0670E+04  setid=       0
 node=    88 local x,y,z forces =   -2.4946E+03    3.5957E+03   -6.0911E+04  setid=       0
 node=    93 local x,y,z forces =   -2.3294E+03    4.3912E+03   -6.1244E+04  setid=       0
 node=    98 local x,y,z forces =   -1.9281E+03    5.0444E+03   -6.1748E+04  setid=       0
 node=   103 local x,y,z forces =   -1.3089E+03    5.9114E+03   -6.2453E+04  setid=       0
 node=   108 local x,y,z forces =    2.1928E+02    6.2528E+03   -6.3607E+04  setid=       0
 node=   113 local x,y,z forces =    2.9827E+03    7.1799E+03   -6.5198E+04  setid=       0
 node=   118 local x,y,z forces =    8.5199E+03    1.0336E+04   -6.8216E+04  setid=       0
 node=   123 local x,y,z forces =    7.9221E+03    1.2689E+04   -3.6033E+04  setid=       0
 node=  6253 local x,y,z forces =    7.8866E+03   -1.2659E+04    0.0000E+00  setid=       0
 node=  6258 local x,y,z forces =    8.4489E+03   -1.0336E+04    0.0000E+00  setid=       0
 node=  6263 local x,y,z forces =    2.9117E+03   -7.1799E+03    0.0000E+00  setid=       0
 node=  6268 local x,y,z forces =    1.4831E+02   -6.2528E+03    0.0000E+00  setid=       0
 node=  6273 local x,y,z forces =   -1.3799E+03   -5.9114E+03    0.0000E+00  setid=       0
 node=  6278 local x,y,z forces =   -1.9990E+03   -5.0444E+03    0.0000E+00  setid=       0
 node=  6283 local x,y,z forces =   -2.4003E+03   -4.3912E+03    0.0000E+00  setid=       0
 node=  6288 local x,y,z forces =   -2.5655E+03   -3.5957E+03    0.0000E+00  setid=       0
 node=  6293 local x,y,z forces =   -2.6825E+03   -2.8884E+03    0.0000E+00  setid=       0
 node=  6298 local x,y,z forces =   -2.7301E+03   -2.1461E+03    0.0000E+00  setid=       0
 node=  6303 local x,y,z forces =   -2.7673E+03   -1.4326E+03    0.0000E+00  setid=       0
 node=  6308 local x,y,z forces =   -2.7787E+03   -7.1290E+02    0.0000E+00  setid=       0
 node=  6313 local x,y,z forces =   -2.7869E+03   -6.0936E-10    0.0000E+00  setid=       0
 node=  6318 local x,y,z forces =   -2.7787E+03    7.1290E+02    0.0000E+00  setid=       0
 node=  6323 local x,y,z forces =   -2.7673E+03    1.4326E+03    0.0000E+00  setid=       0
 node=  6328 local x,y,z forces =   -2.7301E+03    2.1461E+03    0.0000E+00  setid=       0
 node=  6333 local x,y,z forces =   -2.6825E+03    2.8884E+03    0.0000E+00  setid=       0
 node=  6338 local x,y,z forces =   -2.5655E+03    3.5957E+03    0.0000E+00  setid=       0
 node=  6343 local x,y,z forces =   -2.4003E+03    4.3912E+03    0.0000E+00  setid=       0
 node=  6348 local x,y,z forces =   -1.9990E+03    5.0444E+03    0.0000E+00  setid=       0
 node=  6353 local x,y,z forces =   -1.3799E+03    5.9114E+03    0.0000E+00  setid=       0
 node=  6358 local x,y,z forces =    1.4831E+02    6.2528E+03    0.0000E+00  setid=       0
 node=  6363 local x,y,z forces =    2.9117E+03    7.1799E+03    0.0000E+00  setid=       0
 node=  6368 local x,y,z forces =    8.4489E+03    1.0336E+04    0.0000E+00  setid=       0
 node=  6373 local x,y,z forces =    7.8866E+03    1.2659E+04    0.0000E+00  setid=       0
             force resultants   =   -3.5030E+03    4.8774E-08   -1.5030E+06
 output at time =   7.00000E-03
 node=     3 local x,y,z forces =    8.2371E+03   -1.2645E+04   -3.6057E+04  setid=       0
 node=     8 local x,y,z forces =    8.8625E+03   -1.0319E+04   -6.8202E+04  setid=       0
 node=    13 local x,y,z forces =    3.1064E+03   -7.1686E+03   -6.5137E+04  setid=       0
 node=    18 local x,y,z forces =    2.3384E+02   -6.2432E+03   -6.3523E+04  setid=       0
 node=    23 local x,y,z forces =   -1.3548E+03   -5.9024E+03   -6.2356E+04  setid=       0
 node=    28 local x,y,z forces =   -1.9985E+03   -5.0370E+03   -6.1647E+04  setid=       0
 node=    33 local x,y,z forces =   -2.4157E+03   -4.3848E+03   -6.1140E+04  setid=       0
 node=    38 local x,y,z forces =   -2.5875E+03   -3.5906E+03   -6.0806E+04  setid=       0
 node=    43 local x,y,z forces =   -2.7093E+03   -2.8843E+03   -6.0564E+04  setid=       0
 node=    48 local x,y,z forces =   -2.7588E+03   -2.1431E+03   -6.0402E+04  setid=       0
 node=    53 local x,y,z forces =   -2.7976E+03   -1.4306E+03   -6.0293E+04  setid=       0
 node=    58 local x,y,z forces =   -2.8094E+03   -7.1193E+02   -6.0233E+04  setid=       0
 node=    63 local x,y,z forces =   -2.8180E+03   -3.6471E-09   -6.0213E+04  setid=       0
 node=    68 local x,y,z forces =   -2.8094E+03    7.1193E+02   -6.0233E+04  setid=       0
 node=    73 local x,y,z forces =   -2.7976E+03    1.4306E+03   -6.0293E+04  setid=       0
 node=    78 local x,y,z forces =   -2.7588E+03    2.1431E+03   -6.0402E+04  setid=       0
 node=    83 local x,y,z forces =   -2.7093E+03    2.8843E+03   -6.0564E+04  setid=       0
 node=    88 local x,y,z forces =   -2.5875E+03    3.5906E+03   -6.0806E+04  setid=       0
 node=    93 local x,y,z forces =   -2.4157E+03    4.3848E+03   -6.1140E+04  setid=       0
 node=    98 local x,y,z forces =   -1.9985E+03    5.0370E+03   -6.1647E+04  setid=       0
 node=   103 local x,y,z forces =   -1.3548E+03    5.9024E+03   -6.2356E+04  setid=       0
 node=   108 local x,y,z forces =    2.3384E+02    6.2432E+03   -6.3523E+04  setid=       0
 node=   113 local x,y,z forces =    3.1064E+03    7.1686E+03   -6.5137E+04  setid=       0
 node=   118 local x,y,z forces =    8.8625E+03    1.0319E+04   -6.8202E+04  setid=       0
 node=   123 local x,y,z forces =    8.2371E+03    1.2645E+04   -3.6057E+04  setid=       0
 node=  6253 local x,y,z forces =    8.2059E+03   -1.2620E+04    0.0000E+00  setid=       0
 node=  6258 local x,y,z forces =    8.8002E+03   -1.0319E+04    0.0000E+00  setid=       0
 node=  6263 local x,y,z forces =    3.0442E+03   -7.1686E+03    0.0000E+00  setid=       0
 node=  6268 local x,y,z forces =    1.7159E+02   -6.2432E+03    0.0000E+00  setid=       0
 node=  6273 local x,y,z forces =   -1.4170E+03   -5.9024E+03    0.0000E+00  setid=       0
 node=  6278 local x,y,z forces =   -2.0607E+03   -5.0370E+03    0.0000E+00  setid=       0
 node=  6283 local x,y,z forces =   -2.4780E+03   -4.3848E+03    0.0000E+00  setid=       0
 node=  6288 local x,y,z forces =   -2.6497E+03   -3.5906E+03    0.0000E+00  setid=       0
 node=  6293 local x,y,z forces =   -2.7715E+03   -2.8843E+03    0.0000E+00  setid=       0
 node=  6298 local x,y,z forces =   -2.8210E+03   -2.1431E+03    0.0000E+00  setid=       0
 node=  6303 local x,y,z forces =   -2.8597E+03   -1.4306E+03    0.0000E+00  setid=       0
 node=  6308 local x,y,z forces =   -2.8716E+03   -7.1193E+02    0.0000E+00  setid=       0
 node=  6313 local x,y,z forces =   -2.8802E+03   -4.0200E-09    0.0000E+00  setid=       0
 node=  6318 local x,y,z forces =   -2.8716E+03    7.1193E+02    0.0000E+00  setid=       0
 node=  6323 local x,y,z forces =   -2.8597E+03    1.4306E+03    0.0000E+00  setid=       0
 node=  6328 local x,y,z forces =   -2.8210E+03    2.1431E+03    0.0000E+00  setid=       0
 node=  6333 local x,y,z forces =   -2.7715E+03    2.8843E+03    0.0000E+00  setid=       0
 node=  6338 local x,y,z forces =   -2.6497E+03    3.5906E+03    0.0000E+00  setid=       0
 node=  6343 local x,y,z forces =   -2.4780E+03    4.3848E+03    0.0000E+00  setid=       0
 node=  6348 local x,y,z forces =   -2.0607E+03    5.0370E+03    0.0000E+00  setid=       0
 node=  6353 local x,y,z forces =   -1.4170E+03    5.9024E+03    0.0000E+00  setid=       0
 node=  6358 local x,y,z forces =    1.7159E+02    6.2432E+03    0.0000E+00  setid=       0
 node=  6363 local x,y,z forces =    3.0442E+03    7.1686E+03    0.0000E+00  setid=       0
 node=  6368 local x,y,z forces =    8.8002E+03    1.0319E+04    0.0000E+00  setid=       0
 node=  6373 local x,y,z forces =    8.2059E+03    1.2620E+04    0.0000E+00  setid=       0
             force resultants   =   -3.0965E+03   -1.9900E-08   -1.5009E+06
 output at time =   7.50000E-03
 node=     3 local x,y,z forces =    8.5393E+03   -1.2611E+04   -3.6093E+04  setid=       0
 node=     8 local x,y,z forces =    9.1908E+03   -1.0305E+04   -6.8209E+04  setid=       0
 node=    13 local x,y,z forces =    3.2247E+03   -7.1593E+03   -6.5096E+04  setid=       0
 node=    18 local x,y,z forces =    2.4726E+02   -6.2354E+03   -6.3459E+04  setid=       0
 node=    23 local x,y,z forces =   -1.3993E+03   -5.8952E+03   -6.2279E+04  setid=       0
 node=    28 local x,y,z forces =   -2.0667E+03   -5.0309E+03   -6.1565E+04  setid=       0
 node=    33 local x,y,z forces =   -2.4992E+03   -4.3797E+03   -6.1055E+04  setid=       0
 node=    38 local x,y,z forces =   -2.6773E+03   -3.5865E+03   -6.0720E+04  setid=       0
 node=    43 local x,y,z forces =   -2.8036E+03   -2.8811E+03   -6.0477E+04  setid=       0
 node=    48 local x,y,z forces =   -2.8550E+03   -2.1407E+03   -6.0315E+04  setid=       0
 node=    53 local x,y,z forces =   -2.8951E+03   -1.4291E+03   -6.0206E+04  setid=       0
 node=    58 local x,y,z forces =   -2.9074E+03   -7.1116E+02   -6.0147E+04  setid=       0
 node=    63 local x,y,z forces =   -2.9164E+03   -7.8217E-11   -6.0126E+04  setid=       0
 node=    68 local x,y,z forces =   -2.9074E+03    7.1116E+02   -6.0147E+04  setid=       0
 node=    73 local x,y,z forces =   -2.8951E+03    1.4291E+03   -6.0206E+04  setid=       0
 node=    78 local x,y,z forces =   -2.8550E+03    2.1407E+03   -6.0315E+04  setid=       0
 node=    83 local x,y,z forces =   -2.8036E+03    2.8811E+03   -6.0477E+04  setid=       0
 node=    88 local x,y,z forces =   -2.6773E+03    3.5865E+03   -6.0720E+04  setid=       0
 node=    93 local x,y,z forces =   -2.4992E+03    4.3797E+03   -6.1055E+04  setid=       0
 node=    98 local x,y,z forces =   -2.0667E+03    5.0309E+03   -6.1565E+04  setid=       0
 node=   103 local x,y,z forces =   -1.3993E+03    5.8952E+03   -6.2279E+04  setid=       0
 node=   108 local x,y,z forces =    2.4726E+02    6.2354E+03   -6.3459E+04  setid=       0
 node=   113 local x,y,z forces =    3.2247E+03    7.1593E+03   -6.5096E+04  setid=       0
 node=   118 local x,y,z forces =    9.1908E+03    1.0305E+04   -6.8209E+04  setid=       0
 node=   123 local x,y,z forces =    8.5393E+03    1.2611E+04   -3.6093E+04  setid=       0
 node=  6253 local x,y,z forces =    8.5116E+03   -1.2589E+04    0.0000E+00  setid=       0
 node=  6258 local x,y,z forces =    9.1356E+03   -1.0305E+04    0.0000E+00  setid=       0
 node=  6263 local x,y,z forces =    3.1694E+03   -7.1593E+03    0.0000E+00  setid=       0
 node=  6268 local x,y,z forces =    1.9206E+02   -6.2354E+03    0.0000E+00  setid=       0
 node=  6273 local x,y,z forces =   -1.4545E+03   -5.8952E+03    0.0000E+00  setid=       0
 node=  6278 local x,y,z forces =   -2.1218E+03   -5.0309E+03    0.0000E+00  setid=       0
 node=  6283 local x,y,z forces =   -2.5543E+03   -4.3797E+03    0.0000E+00  setid=       0
 node=  6288 local x,y,z forces =   -2.7325E+03   -3.5865E+03    0.0000E+00  setid=       0
 node=  6293 local x,y,z forces =   -2.8588E+03   -2.8811E+03    0.0000E+00  setid=       0
 node=  6298 local x,y,z forces =   -2.9101E+03   -2.1407E+03    0.0000E+00  setid=       0
 node=  6303 local x,y,z forces =   -2.9503E+03   -1.4291E+03    0.0000E+00  setid=       0
 node=  6308 local x,y,z forces =   -2.9626E+03   -7.1116E+02    0.0000E+00  setid=       0
 node=  6313 local x,y,z forces =   -2.9715E+03   -1.4588E-09    0.0000E+00  setid=       0
 node=  6318 local x,y,z forces =   -2.9626E+03    7.1116E+02    0.0000E+00  setid=       0
 node=  6323 local x,y,z forces =   -2.9503E+03    1.4291E+03    0.0000E+00  setid=       0
 node=  6328 local x,y,z forces =   -2.9101E+03    2.1407E+03    0.0000E+00  setid=       0
 node=  6333 local x,y,z forces =   -2.8588E+03    2.8811E+03    0.0000E+00  setid=       0
 node=  6338 local x,y,z forces =   -2.7325E+03    3.5865E+03    0.0000E+00  setid=       0
 node=  6343 local x,y,z forces =   -2.5543E+03    4.3797E+03    0.0000E+00  setid=       0
 node=  6348 local x,y,z forces =   -2.1218E+03    5.0309E+03    0.0000E+00  setid=       0
 node=  6353 local x,y,z forces =   -1.4545E+03    5.8952E+03    0.0000E+00  setid=       0
 node=  6358 local x,y,z forces =    1.9206E+02    6.2354E+03    0.0000E+00  setid=       0
 node=  6363 local x,y,z forces =    3.1694E+03    7.1593E+03    0.0000E+00  setid=       0
 node=  6368 local x,y,z forces =    9.1356E+03    1.0305E+04    0.0000E+00  setid=       0
 node=  6373 local x,y,z forces =    8.5116E+03    1.2589E+04    0.0000E+00  setid=       0
             force resultants   =   -2.7637E+03    2.9730E-08   -1.4994E+06
 output at time =   8.00000E-03
 node=     3 local x,y,z forces =    8.8300E+03   -1.2583E+04   -3.6136E+04  setid=       0
 node=     8 local x,y,z forces =    9.5064E+03   -1.0293E+04   -6.8232E+04  setid=       0
 node=    13 local x,y,z forces =    3.3380E+03   -7.1515E+03   -6.5071E+04  setid=       0
 node=    18 local x,y,z forces =    2.5975E+02   -6.2288E+03   -6.3410E+04  setid=       0
 node=    23 local x,y,z forces =   -1.4426E+03   -5.8891E+03   -6.2217E+04  setid=       0
 node=    28 local x,y,z forces =   -2.1327E+03   -5.0259E+03   -6.1498E+04  setid=       0
 node=    33 local x,y,z forces =   -2.5799E+03   -4.3754E+03   -6.0985E+04  setid=       0
 node=    38 local x,y,z forces =   -2.7642E+03   -3.5831E+03   -6.0649E+04  setid=       0
 node=    43 local x,y,z forces =   -2.8948E+03   -2.8784E+03   -6.0405E+04  setid=       0
 node=    48 local x,y,z forces =   -2.9480E+03   -2.1388E+03   -6.0243E+04  setid=       0
 node=    53 local x,y,z forces =   -2.9895E+03   -1.4278E+03   -6.0134E+04  setid=       0
 node=    58 local x,y,z forces =   -3.0022E+03   -7.1053E+02   -6.0074E+04  setid=       0
 node=    63 local x,y,z forces =   -3.0115E+03   -2.7976E-09   -6.0054E+04  setid=       0
 node=    68 local x,y,z forces =   -3.0022E+03    7.1053E+02   -6.0074E+04  setid=       0
 node=    73 local x,y,z forces =   -2.9895E+03    1.4278E+03   -6.0134E+04  setid=       0
 node=    78 local x,y,z forces =   -2.9480E+03    2.1388E+03   -6.0243E+04  setid=       0
 node=    83 local x,y,z forces =   -2.8948E+03    2.8784E+03   -6.0405E+04  setid=       0
 node=    88 local x,y,z forces =   -2.7642E+03    3.5831E+03   -6.0649E+04  setid=       0
 node=    93 local x,y,z forces =   -2.5799E+03    4.3754E+03   -6.0985E+04  setid=       0
 node=    98 local x,y,z forces =   -2.1327E+03    5.0259E+03   -6.1498E+04  setid=       0
 node=   103 local x,y,z forces =   -1.4426E+03    5.8891E+03   -6.2217E+04  setid=       0
 node=   108 local x,y,z forces =    2.5975E+02    6.2288E+03   -6.3410E+04  setid=       0
 node=   113 local x,y,z forces =    3.3380E+03    7.1515E+03   -6.5071E+04  setid=       0
 node=   118 local x,y,z forces =    9.5064E+03    1.0293E+04   -6.8232E+04  setid=       0
 node=   123 local x,y,z forces =    8.8300E+03    1.2583E+04   -3.6136E+04  setid=       0
 node=  6253 local x,y,z forces =    8.8053E+03   -1.2564E+04    0.0000E+00  setid=       0
 node=  6258 local x,y,z forces =    9.4570E+03   -1.0293E+04    0.0000E+00  setid=       0
 node=  6263 local x,y,z forces =    3.2886E+03   -7.1515E+03    0.0000E+00  setid=       0
 node=  6268 local x,y,z forces =    2.1036E+02   -6.2288E+03    0.0000E+00  setid=       0
 node=  6273 local x,y,z forces =   -1.4920E+03   -5.8891E+03    0.0000E+00  setid=       0
 node=  6278 local x,y,z forces =   -2.1821E+03   -5.0259E+03    0.0000E+00  setid=       0
 node=  6283 local x,y,z forces =   -2.6293E+03   -4.3754E+03    0.0000E+00  setid=       0
 node=  6288 local x,y,z forces =   -2.8135E+03   -3.5831E+03    0.0000E+00  setid=       0
 node=  6293 local x,y,z forces =   -2.9442E+03   -2.8784E+03    0.0000E+00  setid=       0
 node=  6298 local x,y,z forces =   -2.9973E+03   -2.1388E+03    0.0000E+00  setid=       0
[...]
 node=  6333 local x,y,z forces =   -6.8624E+03    2.8399E+03    0.0000E+00  setid=       0
 node=  6338 local x,y,z forces =   -6.5462E+03    3.5295E+03    0.0000E+00  setid=       0
 node=  6343 local x,y,z forces =   -6.1012E+03    4.3002E+03    0.0000E+00  setid=       0
 node=  6348 local x,y,z forces =   -5.0285E+03    4.9297E+03    0.0000E+00  setid=       0
 node=  6353 local x,y,z forces =   -3.3751E+03    5.7606E+03    0.0000E+00  setid=       0
 node=  6358 local x,y,z forces =    6.9399E+02    6.0809E+03    0.0000E+00  setid=       0
 node=  6363 local x,y,z forces =    8.0490E+03    6.9589E+03    0.0000E+00  setid=       0
 node=  6368 local x,y,z forces =    2.2787E+04    9.9616E+03    0.0000E+00  setid=       0
 node=  6373 local x,y,z forces =    2.1121E+04    1.2070E+04    0.0000E+00  setid=       0
             force resultants   =   -1.4930E+02    5.6461E-09   -1.5051E+06
 output at time =   4.85000E-02
 node=     3 local x,y,z forces =    2.1222E+04   -1.2066E+04   -4.1989E+04  setid=       0
 node=     8 local x,y,z forces =    2.2896E+04   -9.9581E+03   -7.4668E+04  setid=       0
 node=    13 local x,y,z forces =    8.0895E+03   -6.9569E+03   -6.7516E+04  setid=       0
 node=    18 local x,y,z forces =    6.9994E+02   -6.0795E+03   -6.3865E+04  setid=       0
 node=    23 local x,y,z forces =   -3.3883E+03   -5.7593E+03   -6.1576E+04  setid=       0
 node=    28 local x,y,z forces =   -5.0495E+03   -4.9288E+03   -6.0418E+04  setid=       0
 node=    33 local x,y,z forces =   -6.1273E+03   -4.2995E+03   -5.9625E+04  setid=       0
 node=    38 local x,y,z forces =   -6.5744E+03   -3.5290E+03   -5.9180E+04  setid=       0
 node=    43 local x,y,z forces =   -6.8921E+03   -2.8396E+03   -5.8863E+04  setid=       0
 node=    48 local x,y,z forces =   -7.0234E+03   -2.1132E+03   -5.8675E+04  setid=       0
 node=    53 local x,y,z forces =   -7.1259E+03   -1.4121E+03   -5.8546E+04  setid=       0
 node=    58 local x,y,z forces =   -7.1582E+03   -7.0321E+02   -5.8483E+04  setid=       0
 node=    63 local x,y,z forces =   -7.1809E+03   -2.0173E-09   -5.8458E+04  setid=       0
 node=    68 local x,y,z forces =   -7.1582E+03    7.0321E+02   -5.8483E+04  setid=       0
 node=    73 local x,y,z forces =   -7.1259E+03    1.4121E+03   -5.8546E+04  setid=       0
 node=    78 local x,y,z forces =   -7.0234E+03    2.1132E+03   -5.8675E+04  setid=       0
 node=    83 local x,y,z forces =   -6.8921E+03    2.8396E+03   -5.8863E+04  setid=       0
 node=    88 local x,y,z forces =   -6.5744E+03    3.5290E+03   -5.9180E+04  setid=       0
 node=    93 local x,y,z forces =   -6.1273E+03    4.2995E+03   -5.9625E+04  setid=       0
 node=    98 local x,y,z forces =   -5.0495E+03    4.9288E+03   -6.0418E+04  setid=       0
 node=   103 local x,y,z forces =   -3.3883E+03    5.7593E+03   -6.1576E+04  setid=       0
 node=   108 local x,y,z forces =    6.9994E+02    6.0795E+03   -6.3865E+04  setid=       0
 node=   113 local x,y,z forces =    8.0895E+03    6.9569E+03   -6.7516E+04  setid=       0
 node=   118 local x,y,z forces =    2.2896E+04    9.9581E+03   -7.4668E+04  setid=       0
 node=   123 local x,y,z forces =    2.1222E+04    1.2066E+04   -4.1989E+04  setid=       0
 node=  6253 local x,y,z forces =    2.1221E+04   -1.2066E+04    0.0000E+00  setid=       0
 node=  6258 local x,y,z forces =    2.2894E+04   -9.9581E+03    0.0000E+00  setid=       0
 node=  6263 local x,y,z forces =    8.0870E+03   -6.9569E+03    0.0000E+00  setid=       0
 node=  6268 local x,y,z forces =    6.9748E+02   -6.0795E+03    0.0000E+00  setid=       0
 node=  6273 local x,y,z forces =   -3.3908E+03   -5.7593E+03    0.0000E+00  setid=       0
 node=  6278 local x,y,z forces =   -5.0519E+03   -4.9288E+03    0.0000E+00  setid=       0
 node=  6283 local x,y,z forces =   -6.1298E+03   -4.2995E+03    0.0000E+00  setid=       0
 node=  6288 local x,y,z forces =   -6.5769E+03   -3.5290E+03    0.0000E+00  setid=       0
 node=  6293 local x,y,z forces =   -6.8946E+03   -2.8396E+03    0.0000E+00  setid=       0
 node=  6298 local x,y,z forces =   -7.0259E+03   -2.1132E+03    0.0000E+00  setid=       0
 node=  6303 local x,y,z forces =   -7.1283E+03   -1.4121E+03    0.0000E+00  setid=       0
 node=  6308 local x,y,z forces =   -7.1606E+03   -7.0321E+02    0.0000E+00  setid=       0
 node=  6313 local x,y,z forces =   -7.1834E+03   -6.9886E-09    0.0000E+00  setid=       0
 node=  6318 local x,y,z forces =   -7.1606E+03    7.0321E+02    0.0000E+00  setid=       0
 node=  6323 local x,y,z forces =   -7.1283E+03    1.4121E+03    0.0000E+00  setid=       0
 node=  6328 local x,y,z forces =   -7.0259E+03    2.1132E+03    0.0000E+00  setid=       0
 node=  6333 local x,y,z forces =   -6.8946E+03    2.8396E+03    0.0000E+00  setid=       0
 node=  6338 local x,y,z forces =   -6.5769E+03    3.5290E+03    0.0000E+00  setid=       0
 node=  6343 local x,y,z forces =   -6.1298E+03    4.2995E+03    0.0000E+00  setid=       0
 node=  6348 local x,y,z forces =   -5.0519E+03    4.9288E+03    0.0000E+00  setid=       0
 node=  6353 local x,y,z forces =   -3.3908E+03    5.7593E+03    0.0000E+00  setid=       0
 node=  6358 local x,y,z forces =    6.9748E+02    6.0795E+03    0.0000E+00  setid=       0
 node=  6363 local x,y,z forces =    8.0870E+03    6.9569E+03    0.0000E+00  setid=       0
 node=  6368 local x,y,z forces =    2.2894E+04    9.9581E+03    0.0000E+00  setid=       0
 node=  6373 local x,y,z forces =    2.1221E+04    1.2066E+04    0.0000E+00  setid=       0
             force resultants   =   -1.4695E+02   -3.0850E-09   -1.5053E+06
 output at time =   4.90000E-02
 node=     3 local x,y,z forces =    2.1320E+04   -1.2061E+04   -4.2063E+04  setid=       0
 node=     8 local x,y,z forces =    2.3003E+04   -9.9546E+03   -7.4751E+04  setid=       0
 node=    13 local x,y,z forces =    8.1272E+03   -6.9549E+03   -6.7551E+04  setid=       0
 node=    18 local x,y,z forces =    7.0335E+02   -6.0780E+03   -6.3875E+04  setid=       0
 node=    23 local x,y,z forces =   -3.4039E+03   -5.7580E+03   -6.1573E+04  setid=       0
 node=    28 local x,y,z forces =   -5.0728E+03   -4.9279E+03   -6.0409E+04  setid=       0
 node=    33 local x,y,z forces =   -6.1557E+03   -4.2988E+03   -5.9613E+04  setid=       0
 node=    38 local x,y,z forces =   -6.6049E+03   -3.5286E+03   -5.9167E+04  setid=       0
 node=    43 local x,y,z forces =   -6.9242E+03   -2.8393E+03   -5.8848E+04  setid=       0
 node=    48 local x,y,z forces =   -7.0561E+03   -2.1130E+03   -5.8660E+04  setid=       0
 node=    53 local x,y,z forces =   -7.1591E+03   -1.4120E+03   -5.8531E+04  setid=       0
 node=    58 local x,y,z forces =   -7.1915E+03   -7.0317E+02   -5.8468E+04  setid=       0
 node=    63 local x,y,z forces =   -7.2144E+03   -1.9154E-09   -5.8443E+04  setid=       0
 node=    68 local x,y,z forces =   -7.1915E+03    7.0317E+02   -5.8468E+04  setid=       0
 node=    73 local x,y,z forces =   -7.1591E+03    1.4120E+03   -5.8531E+04  setid=       0
 node=    78 local x,y,z forces =   -7.0561E+03    2.1130E+03   -5.8660E+04  setid=       0
 node=    83 local x,y,z forces =   -6.9242E+03    2.8393E+03   -5.8848E+04  setid=       0
 node=    88 local x,y,z forces =   -6.6049E+03    3.5286E+03   -5.9167E+04  setid=       0
 node=    93 local x,y,z forces =   -6.1557E+03    4.2988E+03   -5.9613E+04  setid=       0
 node=    98 local x,y,z forces =   -5.0728E+03    4.9279E+03   -6.0409E+04  setid=       0
 node=   103 local x,y,z forces =   -3.4039E+03    5.7580E+03   -6.1573E+04  setid=       0
 node=   108 local x,y,z forces =    7.0335E+02    6.0780E+03   -6.3875E+04  setid=       0
 node=   113 local x,y,z forces =    8.1272E+03    6.9549E+03   -6.7551E+04  setid=       0
 node=   118 local x,y,z forces =    2.3003E+04    9.9546E+03   -7.4751E+04  setid=       0
 node=   123 local x,y,z forces =    2.1320E+04    1.2061E+04   -4.2063E+04  setid=       0
 node=  6253 local x,y,z forces =    2.1319E+04   -1.2061E+04    0.0000E+00  setid=       0
 node=  6258 local x,y,z forces =    2.3000E+04   -9.9546E+03    0.0000E+00  setid=       0
 node=  6263 local x,y,z forces =    8.1248E+03   -6.9549E+03    0.0000E+00  setid=       0
 node=  6268 local x,y,z forces =    7.0094E+02   -6.0780E+03    0.0000E+00  setid=       0
 node=  6273 local x,y,z forces =   -3.4063E+03   -5.7580E+03    0.0000E+00  setid=       0
 node=  6278 local x,y,z forces =   -5.0752E+03   -4.9279E+03    0.0000E+00  setid=       0
 node=  6283 local x,y,z forces =   -6.1581E+03   -4.2988E+03    0.0000E+00  setid=       0
 node=  6288 local x,y,z forces =   -6.6073E+03   -3.5286E+03    0.0000E+00  setid=       0
 node=  6293 local x,y,z forces =   -6.9266E+03   -2.8393E+03    0.0000E+00  setid=       0
 node=  6298 local x,y,z forces =   -7.0585E+03   -2.1130E+03    0.0000E+00  setid=       0
 node=  6303 local x,y,z forces =   -7.1615E+03   -1.4120E+03    0.0000E+00  setid=       0
 node=  6308 local x,y,z forces =   -7.1939E+03   -7.0317E+02    0.0000E+00  setid=       0
 node=  6313 local x,y,z forces =   -7.2168E+03   -5.6498E-09    0.0000E+00  setid=       0
 node=  6318 local x,y,z forces =   -7.1939E+03    7.0317E+02    0.0000E+00  setid=       0
 node=  6323 local x,y,z forces =   -7.1615E+03    1.4120E+03    0.0000E+00  setid=       0
 node=  6328 local x,y,z forces =   -7.0585E+03    2.1130E+03    0.0000E+00  setid=       0
 node=  6333 local x,y,z forces =   -6.9266E+03    2.8393E+03    0.0000E+00  setid=       0
 node=  6338 local x,y,z forces =   -6.6073E+03    3.5286E+03    0.0000E+00  setid=       0
 node=  6343 local x,y,z forces =   -6.1581E+03    4.2988E+03    0.0000E+00  setid=       0
 node=  6348 local x,y,z forces =   -5.0752E+03    4.9279E+03    0.0000E+00  setid=       0
 node=  6353 local x,y,z forces =   -3.4063E+03    5.7580E+03    0.0000E+00  setid=       0
 node=  6358 local x,y,z forces =    7.0094E+02    6.0780E+03    0.0000E+00  setid=       0
 node=  6363 local x,y,z forces =    8.1248E+03    6.9549E+03    0.0000E+00  setid=       0
 node=  6368 local x,y,z forces =    2.3000E+04    9.9546E+03    0.0000E+00  setid=       0
 node=  6373 local x,y,z forces =    2.1319E+04    1.2061E+04    0.0000E+00  setid=       0
             force resultants   =   -1.4466E+02    5.0532E-09   -1.5055E+06
 output at time =   4.95000E-02
 node=     3 local x,y,z forces =    2.1418E+04   -1.2056E+04   -4.2137E+04  setid=       0
 node=     8 local x,y,z forces =    2.3108E+04   -9.9511E+03   -7.4834E+04  setid=       0
 node=    13 local x,y,z forces =    8.1646E+03   -6.9530E+03   -6.7585E+04  setid=       0
 node=    18 local x,y,z forces =    7.0675E+02   -6.0765E+03   -6.3885E+04  setid=       0
 node=    23 local x,y,z forces =   -3.4194E+03   -5.7568E+03   -6.1570E+04  setid=       0
 node=    28 local x,y,z forces =   -5.0960E+03   -4.9270E+03   -6.0401E+04  setid=       0
 node=    33 local x,y,z forces =   -6.1838E+03   -4.2982E+03   -5.9601E+04  setid=       0
 node=    38 local x,y,z forces =   -6.6352E+03   -3.5281E+03   -5.9153E+04  setid=       0
 node=    43 local x,y,z forces =   -6.9560E+03   -2.8390E+03   -5.8834E+04  setid=       0
 node=    48 local x,y,z forces =   -7.0886E+03   -2.1129E+03   -5.8646E+04  setid=       0
 node=    53 local x,y,z forces =   -7.1920E+03   -1.4119E+03   -5.8516E+04  setid=       0
 node=    58 local x,y,z forces =   -7.2246E+03   -7.0312E+02   -5.8453E+04  setid=       0
 node=    63 local x,y,z forces =   -7.2476E+03   -2.0100E-09   -5.8427E+04  setid=       0
 node=    68 local x,y,z forces =   -7.2246E+03    7.0312E+02   -5.8453E+04  setid=       0
 node=    73 local x,y,z forces =   -7.1920E+03    1.4119E+03   -5.8516E+04  setid=       0
 node=    78 local x,y,z forces =   -7.0886E+03    2.1129E+03   -5.8646E+04  setid=       0
 node=    83 local x,y,z forces =   -6.9560E+03    2.8390E+03   -5.8834E+04  setid=       0
 node=    88 local x,y,z forces =   -6.6352E+03    3.5281E+03   -5.9153E+04  setid=       0
 node=    93 local x,y,z forces =   -6.1838E+03    4.2982E+03   -5.9601E+04  setid=       0
 node=    98 local x,y,z forces =   -5.0960E+03    4.9270E+03   -6.0401E+04  setid=       0
 node=   103 local x,y,z forces =   -3.4194E+03    5.7568E+03   -6.1570E+04  setid=       0
 node=   108 local x,y,z forces =    7.0675E+02    6.0765E+03   -6.3885E+04  setid=       0
 node=   113 local x,y,z forces =    8.1646E+03    6.9530E+03   -6.7585E+04  setid=       0
 node=   118 local x,y,z forces =    2.3108E+04    9.9511E+03   -7.4834E+04  setid=       0
 node=   123 local x,y,z forces =    2.1418E+04    1.2056E+04   -4.2137E+04  setid=       0
 node=  6253 local x,y,z forces =    2.1417E+04   -1.2056E+04    0.0000E+00  setid=       0
 node=  6258 local x,y,z forces =    2.3106E+04   -9.9511E+03    0.0000E+00  setid=       0
 node=  6263 local x,y,z forces =    8.1623E+03   -6.9530E+03    0.0000E+00  setid=       0
 node=  6268 local x,y,z forces =    7.0437E+02   -6.0765E+03    0.0000E+00  setid=       0
 node=  6273 local x,y,z forces =   -3.4217E+03   -5.7568E+03    0.0000E+00  setid=       0
 node=  6278 local x,y,z forces =   -5.0983E+03   -4.9270E+03    0.0000E+00  setid=       0
 node=  6283 local x,y,z forces =   -6.1862E+03   -4.2982E+03    0.0000E+00  setid=       0
 node=  6288 local x,y,z forces =   -6.6376E+03   -3.5281E+03    0.0000E+00  setid=       0
 node=  6293 local x,y,z forces =   -6.9583E+03   -2.8390E+03    0.0000E+00  setid=       0
 node=  6298 local x,y,z forces =   -7.0909E+03   -2.1129E+03    0.0000E+00  setid=       0
 node=  6303 local x,y,z forces =   -7.1944E+03   -1.4119E+03    0.0000E+00  setid=       0
 node=  6308 local x,y,z forces =   -7.2270E+03   -7.0312E+02    0.0000E+00  setid=       0
 node=  6313 local x,y,z forces =   -7.2500E+03   -7.3796E-09    0.0000E+00  setid=       0
 node=  6318 local x,y,z forces =   -7.2270E+03    7.0312E+02    0.0000E+00  setid=       0
 node=  6323 local x,y,z forces =   -7.1944E+03    1.4119E+03    0.0000E+00  setid=       0
 node=  6328 local x,y,z forces =   -7.0909E+03    2.1129E+03    0.0000E+00  setid=       0
 node=  6333 local x,y,z forces =   -6.9583E+03    2.8390E+03    0.0000E+00  setid=       0
 node=  6338 local x,y,z forces =   -6.6376E+03    3.5281E+03    0.0000E+00  setid=       0
 node=  6343 local x,y,z forces =   -6.1862E+03    4.2982E+03    0.0000E+00  setid=       0
 node=  6348 local x,y,z forces =   -5.0983E+03    4.9270E+03    0.0000E+00  setid=       0
 node=  6353 local x,y,z forces =   -3.4217E+03    5.7568E+03    0.0000E+00  setid=       0
 node=  6358 local x,y,z forces =    7.0437E+02    6.0765E+03    0.0000E+00  setid=       0
 node=  6363 local x,y,z forces =    8.1623E+03    6.9530E+03    0.0000E+00  setid=       0
 node=  6368 local x,y,z forces =    2.3106E+04    9.9511E+03    0.0000E+00  setid=       0
 node=  6373 local x,y,z forces =    2.1417E+04    1.2056E+04    0.0000E+00  setid=       0
             force resultants   =   -1.4243E+02   -5.1459E-09   -1.5057E+06
 output at time =   5.00000E-02
 node=     3 local x,y,z forces =    2.1515E+04   -1.2052E+04   -4.2210E+04  setid=       0
 node=     8 local x,y,z forces =    2.3213E+04   -9.9476E+03   -7.4918E+04  setid=       0
 node=    13 local x,y,z forces =    8.2018E+03   -6.9510E+03   -6.7620E+04  setid=       0
 node=    18 local x,y,z forces =    7.1012E+02   -6.0750E+03   -6.3896E+04  setid=       0
 node=    23 local x,y,z forces =   -3.4347E+03   -5.7555E+03   -6.1566E+04  setid=       0
 node=    28 local x,y,z forces =   -5.1190E+03   -4.9261E+03   -6.0392E+04  setid=       0
 node=    33 local x,y,z forces =   -6.2118E+03   -4.2975E+03   -5.9589E+04  setid=       0
 node=    38 local x,y,z forces =   -6.6653E+03   -3.5277E+03   -5.9140E+04  setid=       0
 node=    43 local x,y,z forces =   -6.9875E+03   -2.8387E+03   -5.8819E+04  setid=       0
 node=    48 local x,y,z forces =   -7.1208E+03   -2.1127E+03   -5.8631E+04  setid=       0
 node=    53 local x,y,z forces =   -7.2248E+03   -1.4118E+03   -5.8501E+04  setid=       0
 node=    58 local x,y,z forces =   -7.2575E+03   -7.0307E+02   -5.8438E+04  setid=       0
 node=    63 local x,y,z forces =   -7.2806E+03   -1.5698E-09   -5.8412E+04  setid=       0
 node=    68 local x,y,z forces =   -7.2575E+03    7.0307E+02   -5.8438E+04  setid=       0
 node=    73 local x,y,z forces =   -7.2248E+03    1.4118E+03   -5.8501E+04  setid=       0
 node=    78 local x,y,z forces =   -7.1208E+03    2.1127E+03   -5.8631E+04  setid=       0
 node=    83 local x,y,z forces =   -6.9875E+03    2.8387E+03   -5.8819E+04  setid=       0
 node=    88 local x,y,z forces =   -6.6653E+03    3.5277E+03   -5.9140E+04  setid=       0
 node=    93 local x,y,z forces =   -6.2118E+03    4.2975E+03   -5.9589E+04  setid=       0
 node=    98 local x,y,z forces =   -5.1190E+03    4.9261E+03   -6.0392E+04  setid=       0
 node=   103 local x,y,z forces =   -3.4347E+03    5.7555E+03   -6.1566E+04  setid=       0
 node=   108 local x,y,z forces =    7.1012E+02    6.0750E+03   -6.3896E+04  setid=       0
 node=   113 local x,y,z forces =    8.2018E+03    6.9510E+03   -6.7620E+04  setid=       0
 node=   118 local x,y,z forces =    2.3213E+04    9.9476E+03   -7.4918E+04  setid=       0
 node=   123 local x,y,z forces =    2.1515E+04    1.2052E+04   -4.2210E+04  setid=       0
 node=  6253 local x,y,z forces =    2.1514E+04   -1.2051E+04    0.0000E+00  setid=       0
 node=  6258 local x,y,z forces =    2.3211E+04   -9.9476E+03    0.0000E+00  setid=       0
 node=  6263 local x,y,z forces =    8.1995E+03   -6.9510E+03    0.0000E+00  setid=       0
 node=  6268 local x,y,z forces =    7.0779E+02   -6.0750E+03    0.0000E+00  setid=       0
 node=  6273 local x,y,z forces =   -3.4371E+03   -5.7555E+03    0.0000E+00  setid=       0
 node=  6278 local x,y,z forces =   -5.1213E+03   -4.9261E+03    0.0000E+00  setid=       0
 node=  6283 local x,y,z forces =   -6.2142E+03   -4.2975E+03    0.0000E+00  setid=       0
 node=  6288 local x,y,z forces =   -6.6676E+03   -3.5277E+03    0.0000E+00  setid=       0
 node=  6293 local x,y,z forces =   -6.9899E+03   -2.8387E+03    0.0000E+00  setid=       0
 node=  6298 local x,y,z forces =   -7.1231E+03   -2.1127E+03    0.0000E+00  setid=       0
 node=  6303 local x,y,z forces =   -7.2271E+03   -1.4118E+03    0.0000E+00  setid=       0
 node=  6308 local x,y,z forces =   -7.2599E+03   -7.0307E+02    0.0000E+00  setid=       0
 node=  6313 local x,y,z forces =   -7.2830E+03   -5.7571E-09    0.0000E+00  setid=       0
 node=  6318 local x,y,z forces =   -7.2599E+03    7.0307E+02    0.0000E+00  setid=       0
 node=  6323 local x,y,z forces =   -7.2271E+03    1.4118E+03    0.0000E+00  setid=       0
 node=  6328 local x,y,z forces =   -7.1231E+03    2.1127E+03    0.0000E+00  setid=       0
 node=  6333 local x,y,z forces =   -6.9899E+03    2.8387E+03    0.0000E+00  setid=       0
 node=  6338 local x,y,z forces =   -6.6676E+03    3.5277E+03    0.0000E+00  setid=       0
 node=  6343 local x,y,z forces =   -6.2142E+03    4.2975E+03    0.0000E+00  setid=       0
 node=  6348 local x,y,z forces =   -5.1213E+03    4.9261E+03    0.0000E+00  setid=       0
 node=  6353 local x,y,z forces =   -3.4371E+03    5.7555E+03    0.0000E+00  setid=       0
 node=  6358 local x,y,z forces =    7.0779E+02    6.0750E+03    0.0000E+00  setid=       0
 node=  6363 local x,y,z forces =    8.1995E+03    6.9510E+03    0.0000E+00  setid=       0
 node=  6368 local x,y,z forces =    2.3211E+04    9.9476E+03    0.0000E+00  setid=       0
 node=  6373 local x,y,z forces =    2.1514E+04    1.2051E+04    0.0000E+00  setid=       0
             force resultants   =   -1.4025E+02    5.9481E-10   -1.5059E+06
