 400x600                                                                 
                         ls-dyna smp.123264 d           date 01/12/2018

{BEGIN LEGEND}
 Entity #        Title
        0     bottom                                                                
        0     top                                                                   
        3     middle                                                                
{END LEGEND}

 single point constraint forces

 output at time =   0.00000E+00
 node=     1 local x,y,z forces =    0.0000E+00    0.0000E+00    0.0000E+00  setid=       0
 node=     2 local x,y,z forces =    0.0000E+00    0.0000E+00    0.0000E+00  setid=       0
 node=     3 local x,y,z forces =    0.0000E+00    0.0000E+00    0.0000E+00  setid=       0
 node=     4 local x,y,z forces =    0.0000E+00    0.0000E+00    0.0000E+00  setid=       0
 node=     5 local x,y,z forces =    0.0000E+00    0.0000E+00    0.0000E+00  setid=       0
 node=     6 local x,y,z forces =    0.0000E+00    0.0000E+00    0.0000E+00  setid=       0
 node=     7 local x,y,z forces =    0.0000E+00    0.0000E+00    0.0000E+00  setid=       0
 node=     8 local x,y,z forces =    0.0000E+00    0.0000E+00    0.0000E+00  setid=       0
 node=     9 local x,y,z forces =    0.0000E+00    0.0000E+00    0.0000E+00  setid=       0
 node=    10 local x,y,z forces =    0.0000E+00    0.0000E+00    0.0000E+00  setid=       0
 node=    11 local x,y,z forces =    0.0000E+00    0.0000E+00    0.0000E+00  setid=       0
 node=    12 local x,y,z forces =    0.0000E+00    0.0000E+00    0.0000E+00  setid=       0
 node=    13 local x,y,z forces =    0.0000E+00    0.0000E+00    0.0000E+00  setid=       0
 node=    14 local x,y,z forces =    0.0000E+00    0.0000E+00    0.0000E+00  setid=       0
 node=    15 local x,y,z forces =    0.0000E+00    0.0000E+00    0.0000E+00  setid=       0
 node=    16 local x,y,z forces =    0.0000E+00    0.0000E+00    0.0000E+00  setid=       0
 node=    17 local x,y,z forces =    0.0000E+00    0.0000E+00    0.0000E+00  setid=       0
 node=    18 local x,y,z forces =    0.0000E+00    0.0000E+00    0.0000E+00  setid=       0
 node=    19 local x,y,z forces =    0.0000E+00    0.0000E+00    0.0000E+00  setid=       0
 node=    20 local x,y,z forces =    0.0000E+00    0.0000E+00    0.0000E+00  setid=       0
 node=    21 local x,y,z forces =    0.0000E+00    0.0000E+00    0.0000E+00  setid=       0
 node=    22 local x,y,z forces =    0.0000E+00    0.0000E+00    0.0000E+00  setid=       0
 node=    23 local x,y,z forces =    0.0000E+00    0.0000E+00    0.0000E+00  setid=       0
 node=    24 local x,y,z forces =    0.0000E+00    0.0000E+00    0.0000E+00  setid=       0
 node=    25 local x,y,z forces =    0.0000E+00    0.0000E+00    0.0000E+00  setid=       0
 node=    26 local x,y,z forces =    0.0000E+00    0.0000E+00    0.0000E+00  setid=       0
 node=    27 local x,y,z forces =    0.0000E+00    0.0000E+00    0.0000E+00  setid=       0
 node=    28 local x,y,z forces =    0.0000E+00    0.0000E+00    0.0000E+00  setid=       0
 node=    29 local x,y,z forces =    0.0000E+00    0.0000E+00    0.0000E+00  setid=       0
 node=    30 local x,y,z forces =    0.0000E+00    0.0000E+00    0.0000E+00  setid=       0
 node=    31 local x,y,z forces =    0.0000E+00    0.0000E+00    0.0000E+00  setid=       0
 node=    32 local x,y,z forces =    0.0000E+00    0.0000E+00    0.0000E+00  setid=       0
 node=    33 local x,y,z forces =    0.0000E+00    0.0000E+00    0.0000E+00  setid=       0
 node=    34 local x,y,z forces =    0.0000E+00    0.0000E+00    0.0000E+00  setid=       0
 node=    35 local x,y,z forces =    0.0000E+00    0.0000E+00    0.0000E+00  setid=       0
 node=    36 local x,y,z forces =    0.0000E+00    0.0000E+00    0.0000E+00  setid=       0
 node=    37 local x,y,z forces =    0.0000E+00    0.0000E+00    0.0000E+00  setid=       0
 node=    38 local x,y,z forces =    0.0000E+00    0.0000E+00    0.0000E+00  setid=       0
 node=    39 local x,y,z forces =    0.0000E+00    0.0000E+00    0.0000E+00  setid=       0
 node=    40 local x,y,z forces =    0.0000E+00    0.0000E+00    0.0000E+00  setid=       0
 node=    41 local x,y,z forces =    0.0000E+00    0.0000E+00    0.0000E+00  setid=       0
 node=    42 local x,y,z forces =    0.0000E+00    0.0000E+00    0.0000E+00  setid=       0
 node=    43 local x,y,z forces =    0.0000E+00    0.0000E+00    0.0000E+00  setid=       0
 node=    44 local x,y,z forces =    0.0000E+00    0.0000E+00    0.0000E+00  setid=       0
 node=    45 local x,y,z forces =    0.0000E+00    0.0000E+00    0.0000E+00  setid=       0
 node=    46 local x,y,z forces =    0.0000E+00    0.0000E+00    0.0000E+00  setid=       0
 node=    47 local x,y,z forces =    0.0000E+00    0.0000E+00    0.0000E+00  setid=       0
 node=    48 local x,y,z forces =    0.0000E+00    0.0000E+00    0.0000E+00  setid=       0
 node=    49 local x,y,z forces =    0.0000E+00    0.0000E+00    0.0000E+00  setid=       0
 node=    50 local x,y,z forces =    0.0000E+00    0.0000E+00    0.0000E+00  setid=       0
 node=    51 local x,y,z forces =    0.0000E+00    0.0000E+00    0.0000E+00  setid=       0
 node=    52 local x,y,z forces =    0.0000E+00    0.0000E+00    0.0000E+00  setid=       0
 node=    53 local x,y,z forces =    0.0000E+00    0.0000E+00    0.0000E+00  setid=       0
 node=    54 local x,y,z forces =    0.0000E+00    0.0000E+00    0.0000E+00  setid=       0
 node=    55 local x,y,z forces =    0.0000E+00    0.0000E+00    0.0000E+00  setid=       0
 node=    56 local x,y,z forces =    0.0000E+00    0.0000E+00    0.0000E+00  setid=       0
 node=    57 local x,y,z forces =    0.0000E+00    0.0000E+00    0.0000E+00  setid=       0
 node=    58 local x,y,z forces =    0.0000E+00    0.0000E+00    0.0000E+00  setid=       0
 node=    59 local x,y,z forces =    0.0000E+00    0.0000E+00    0.0000E+00  setid=       0
 node=    60 local x,y,z forces =    0.0000E+00    0.0000E+00    0.0000E+00  setid=       0
 node=    61 local x,y,z forces =    0.0000E+00    0.0000E+00    0.0000E+00  setid=       0
 node=    62 local x,y,z forces =    0.0000E+00    0.0000E+00    0.0000E+00  setid=       0
 node=    63 local x,y,z forces =    0.0000E+00    0.0000E+00    0.0000E+00  setid=       0
 node=    64 local x,y,z forces =    0.0000E+00    0.0000E+00    0.0000E+00  setid=       0
 node=    65 local x,y,z forces =    0.0000E+00    0.0000E+00    0.0000E+00  setid=       0
 node=    66 local x,y,z forces =    0.0000E+00    0.0000E+00    0.0000E+00  setid=       0
 node=    67 local x,y,z forces =    0.0000E+00    0.0000E+00    0.0000E+00  setid=       0
 node=    68 local x,y,z forces =    0.0000E+00    0.0000E+00    0.0000E+00  setid=       0
 node=    69 local x,y,z forces =    0.0000E+00    0.0000E+00    0.0000E+00  setid=       0
 node=    70 local x,y,z forces =    0.0000E+00    0.0000E+00    0.0000E+00  setid=       0
 node=    71 local x,y,z forces =    0.0000E+00    0.0000E+00    0.0000E+00  setid=       0
 node=    72 local x,y,z forces =    0.0000E+00    0.0000E+00    0.0000E+00  setid=       0
 node=    73 local x,y,z forces =    0.0000E+00    0.0000E+00    0.0000E+00  setid=       0
 node=    74 local x,y,z forces =    0.0000E+00    0.0000E+00    0.0000E+00  setid=       0
 node=    75 local x,y,z forces =    0.0000E+00    0.0000E+00    0.0000E+00  setid=       0
 node=    76 local x,y,z forces =    0.0000E+00    0.0000E+00    0.0000E+00  setid=       0
 node=    77 local x,y,z forces =    0.0000E+00    0.0000E+00    0.0000E+00  setid=       0
 node=    78 local x,y,z forces =    0.0000E+00    0.0000E+00    0.0000E+00  setid=       0
 node=    79 local x,y,z forces =    0.0000E+00    0.0000E+00    0.0000E+00  setid=       0
 node=    80 local x,y,z forces =    0.0000E+00    0.0000E+00    0.0000E+00  setid=       0
 node=    81 local x,y,z forces =    0.0000E+00    0.0000E+00    0.0000E+00  setid=       0
 node=    82 local x,y,z forces =    0.0000E+00    0.0000E+00    0.0000E+00  setid=       0
 node=    83 local x,y,z forces =    0.0000E+00    0.0000E+00    0.0000E+00  setid=       0
 node=    84 local x,y,z forces =    0.0000E+00    0.0000E+00    0.0000E+00  setid=       0
 node=    85 local x,y,z forces =    0.0000E+00    0.0000E+00    0.0000E+00  setid=       0
 node=    86 local x,y,z forces =    0.0000E+00    0.0000E+00    0.0000E+00  setid=       0
 node=    87 local x,y,z forces =    0.0000E+00    0.0000E+00    0.0000E+00  setid=       0
 node=    88 local x,y,z forces =    0.0000E+00    0.0000E+00    0.0000E+00  setid=       0
 node=    89 local x,y,z forces =    0.0000E+00    0.0000E+00    0.0000E+00  setid=       0
 node=    90 local x,y,z forces =    0.0000E+00    0.0000E+00    0.0000E+00  setid=       0
 node=    91 local x,y,z forces =    0.0000E+00    0.0000E+00    0.0000E+00  setid=       0
 node=    92 local x,y,z forces =    0.0000E+00    0.0000E+00    0.0000E+00  setid=       0
 node=    93 local x,y,z forces =    0.0000E+00    0.0000E+00    0.0000E+00  setid=       0
 node=    94 local x,y,z forces =    0.0000E+00    0.0000E+00    0.0000E+00  setid=       0
 node=    95 local x,y,z forces =    0.0000E+00    0.0000E+00    0.0000E+00  setid=       0
 node=    96 local x,y,z forces =    0.0000E+00    0.0000E+00    0.0000E+00  setid=       0
 node=    97 local x,y,z forces =    0.0000E+00    0.0000E+00    0.0000E+00  setid=       0
 node=    98 local x,y,z forces =    0.0000E+00    0.0000E+00    0.0000E+00  setid=       0
 node=    99 local x,y,z forces =    0.0000E+00    0.0000E+00    0.0000E+00  setid=       0
 node=   100 local x,y,z forces =    0.0000E+00    0.0000E+00    0.0000E+00  setid=       0
 node=   101 local x,y,z forces =    0.0000E+00    0.0000E+00    0.0000E+00  setid=       0
 node=   102 local x,y,z forces =    0.0000E+00    0.0000E+00    0.0000E+00  setid=       0
 node=   103 local x,y,z forces =    0.0000E+00    0.0000E+00    0.0000E+00  setid=       0
 node=   104 local x,y,z forces =    0.0000E+00    0.0000E+00    0.0000E+00  setid=       0
 node=   105 local x,y,z forces =    0.0000E+00    0.0000E+00    0.0000E+00  setid=       0
 node=   106 local x,y,z forces =    0.0000E+00    0.0000E+00    0.0000E+00  setid=       0
 node=   107 local x,y,z forces =    0.0000E+00    0.0000E+00    0.0000E+00  setid=       0
 node=   108 local x,y,z forces =    0.0000E+00    0.0000E+00    0.0000E+00  setid=       0
 node=   109 local x,y,z forces =    0.0000E+00    0.0000E+00    0.0000E+00  setid=       0
 node=   110 local x,y,z forces =    0.0000E+00    0.0000E+00    0.0000E+00  setid=       0
 node=   111 local x,y,z forces =    0.0000E+00    0.0000E+00    0.0000E+00  setid=       0
 node=   112 local x,y,z forces =    0.0000E+00    0.0000E+00    0.0000E+00  setid=       0
 node=   113 local x,y,z forces =    0.0000E+00    0.0000E+00    0.0000E+00  setid=       0
 node=   114 local x,y,z forces =    0.0000E+00    0.0000E+00    0.0000E+00  setid=       0
 node=   115 local x,y,z forces =    0.0000E+00    0.0000E+00    0.0000E+00  setid=       0
 node=   116 local x,y,z forces =    0.0000E+00    0.0000E+00    0.0000E+00  setid=       0
 node=   117 local x,y,z forces =    0.0000E+00    0.0000E+00    0.0000E+00  setid=       0
 node=   118 local x,y,z forces =    0.0000E+00    0.0000E+00    0.0000E+00  setid=       0
 node=   119 local x,y,z forces =    0.0000E+00    0.0000E+00    0.0000E+00  setid=       0
 node=   120 local x,y,z forces =    0.0000E+00    0.0000E+00    0.0000E+00  setid=       0
 node=   121 local x,y,z forces =    0.0000E+00    0.0000E+00    0.0000E+00  setid=       0
 node=   122 local x,y,z forces =    0.0000E+00    0.0000E+00    0.0000E+00  setid=       0
 node=   123 local x,y,z forces =    0.0000E+00    0.0000E+00    0.0000E+00  setid=       0
 node=   124 local x,y,z forces =    0.0000E+00    0.0000E+00    0.0000E+00  setid=       0
 node=   125 local x,y,z forces =    0.0000E+00    0.0000E+00    0.0000E+00  setid=       0
 node=  3311 local x,y,z forces =    0.0000E+00    0.0000E+00    0.0000E+00  setid=       3
 node=  6251 local x,y,z forces =    0.0000E+00    0.0000E+00    0.0000E+00  setid=       0
 node=  6252 local x,y,z forces =    0.0000E+00    0.0000E+00    0.0000E+00  setid=       0
 node=  6253 local x,y,z forces =    0.0000E+00    0.0000E+00    0.0000E+00  setid=       0
 node=  6254 local x,y,z forces =    0.0000E+00    0.0000E+00    0.0000E+00  setid=       0
 node=  6255 local x,y,z forces =    0.0000E+00    0.0000E+00    0.0000E+00  setid=       0
 node=  6256 local x,y,z forces =    0.0000E+00    0.0000E+00    0.0000E+00  setid=       0
 node=  6257 local x,y,z forces =    0.0000E+00    0.0000E+00    0.0000E+00  setid=       0
 node=  6258 local x,y,z forces =    0.0000E+00    0.0000E+00    0.0000E+00  setid=       0
 node=  6259 local x,y,z forces =    0.0000E+00    0.0000E+00    0.0000E+00  setid=       0
 node=  6260 local x,y,z forces =    0.0000E+00    0.0000E+00    0.0000E+00  setid=       0
 node=  6261 local x,y,z forces =    0.0000E+00    0.0000E+00    0.0000E+00  setid=       0
 node=  6262 local x,y,z forces =    0.0000E+00    0.0000E+00    0.0000E+00  setid=       0
 node=  6263 local x,y,z forces =    0.0000E+00    0.0000E+00    0.0000E+00  setid=       0
 node=  6264 local x,y,z forces =    0.0000E+00    0.0000E+00    0.0000E+00  setid=       0
 node=  6265 local x,y,z forces =    0.0000E+00    0.0000E+00    0.0000E+00  setid=       0
 node=  6266 local x,y,z forces =    0.0000E+00    0.0000E+00    0.0000E+00  setid=       0
 node=  6267 local x,y,z forces =    0.0000E+00    0.0000E+00    0.0000E+00  setid=       0
 node=  6268 local x,y,z forces =    0.0000E+00    0.0000E+00    0.0000E+00  setid=       0
 node=  6269 local x,y,z forces =    0.0000E+00    0.0000E+00    0.0000E+00  setid=       0
 node=  6270 local x,y,z forces =    0.0000E+00    0.0000E+00    0.0000E+00  setid=       0
 node=  6271 local x,y,z forces =    0.0000E+00    0.0000E+00    0.0000E+00  setid=       0
 node=  6272 local x,y,z forces =    0.0000E+00    0.0000E+00    0.0000E+00  setid=       0
 node=  6273 local x,y,z forces =    0.0000E+00    0.0000E+00    0.0000E+00  setid=       0
 node=  6274 local x,y,z forces =    0.0000E+00    0.0000E+00    0.0000E+00  setid=       0
 node=  6275 local x,y,z forces =    0.0000E+00    0.0000E+00    0.0000E+00  setid=       0
 node=  6276 local x,y,z forces =    0.0000E+00    0.0000E+00    0.0000E+00  setid=       0
 node=  6277 local x,y,z forces =    0.0000E+00    0.0000E+00    0.0000E+00  setid=       0
 node=  6278 local x,y,z forces =    0.0000E+00    0.0000E+00    0.0000E+00  setid=       0
 node=  6279 local x,y,z forces =    0.0000E+00    0.0000E+00    0.0000E+00  setid=       0
 node=  6280 local x,y,z forces =    0.0000E+00    0.0000E+00    0.0000E+00  setid=       0
 node=  6281 local x,y,z forces =    0.0000E+00    0.0000E+00    0.0000E+00  setid=       0
 node=  6282 local x,y,z forces =    0.0000E+00    0.0000E+00    0.0000E+00  setid=       0
 node=  6283 local x,y,z forces =    0.0000E+00    0.0000E+00    0.0000E+00  setid=       0
 node=  6284 local x,y,z forces =    0.0000E+00    0.0000E+00    0.0000E+00  setid=       0
 node=  6285 local x,y,z forces =    0.0000E+00    0.0000E+00    0.0000E+00  setid=       0
 node=  6286 local x,y,z forces =    0.0000E+00    0.0000E+00    0.0000E+00  setid=       0
 node=  6287 local x,y,z forces =    0.0000E+00    0.0000E+00    0.0000E+00  setid=       0
 node=  6288 local x,y,z forces =    0.0000E+00    0.0000E+00    0.0000E+00  setid=       0
 node=  6289 local x,y,z forces =    0.0000E+00    0.0000E+00    0.0000E+00  setid=       0
 node=  6290 local x,y,z forces =    0.0000E+00    0.0000E+00    0.0000E+00  setid=       0
 node=  6291 local x,y,z forces =    0.0000E+00    0.0000E+00    0.0000E+00  setid=       0
 node=  6292 local x,y,z forces =    0.0000E+00    0.0000E+00    0.0000E+00  setid=       0
 node=  6293 local x,y,z forces =    0.0000E+00    0.0000E+00    0.0000E+00  setid=       0
 node=  6294 local x,y,z forces =    0.0000E+00    0.0000E+00    0.0000E+00  setid=       0
 node=  6295 local x,y,z forces =    0.0000E+00    0.0000E+00    0.0000E+00  setid=       0
 node=  6296 local x,y,z forces =    0.0000E+00    0.0000E+00    0.0000E+00  setid=       0
 node=  6297 local x,y,z forces =    0.0000E+00    0.0000E+00    0.0000E+00  setid=       0
 node=  6298 local x,y,z forces =    0.0000E+00    0.0000E+00    0.0000E+00  setid=       0
 node=  6299 local x,y,z forces =    0.0000E+00    0.0000E+00    0.0000E+00  setid=       0
 node=  6300 local x,y,z forces =    0.0000E+00    0.0000E+00    0.0000E+00  setid=       0
 node=  6301 local x,y,z forces =    0.0000E+00    0.0000E+00    0.0000E+00  setid=       0
 node=  6302 local x,y,z forces =    0.0000E+00    0.0000E+00    0.0000E+00  setid=       0
 node=  6303 local x,y,z forces =    0.0000E+00    0.0000E+00    0.0000E+00  setid=       0
 node=  6304 local x,y,z forces =    0.0000E+00    0.0000E+00    0.0000E+00  setid=       0
 node=  6305 local x,y,z forces =    0.0000E+00    0.0000E+00    0.0000E+00  setid=       0
 node=  6306 local x,y,z forces =    0.0000E+00    0.0000E+00    0.0000E+00  setid=       0
 node=  6307 local x,y,z forces =    0.0000E+00    0.0000E+00    0.0000E+00  setid=       0
 node=  6308 local x,y,z forces =    0.0000E+00    0.0000E+00    0.0000E+00  setid=       0
 node=  6309 local x,y,z forces =    0.0000E+00    0.0000E+00    0.0000E+00  setid=       0
 node=  6310 local x,y,z forces =    0.0000E+00    0.0000E+00    0.0000E+00  setid=       0
 node=  6311 local x,y,z forces =    0.0000E+00    0.0000E+00    0.0000E+00  setid=       0
 node=  6312 local x,y,z forces =    0.0000E+00    0.0000E+00    0.0000E+00  setid=       0
 node=  6313 local x,y,z forces =    0.0000E+00    0.0000E+00    0.0000E+00  setid=       0
 node=  6314 local x,y,z forces =    0.0000E+00    0.0000E+00    0.0000E+00  setid=       0
 node=  6315 local x,y,z forces =    0.0000E+00    0.0000E+00    0.0000E+00  setid=       0
 node=  6316 local x,y,z forces =    0.0000E+00    0.0000E+00    0.0000E+00  setid=       0
 node=  6317 local x,y,z forces =    0.0000E+00    0.0000E+00    0.0000E+00  setid=       0
 node=  6318 local x,y,z forces =    0.0000E+00    0.0000E+00    0.0000E+00  setid=       0
 node=  6319 local x,y,z forces =    0.0000E+00    0.0000E+00    0.0000E+00  setid=       0
 node=  6320 local x,y,z forces =    0.0000E+00    0.0000E+00    0.0000E+00  setid=       0
 node=  6321 local x,y,z forces =    0.0000E+00    0.0000E+00    0.0000E+00  setid=       0
 node=  6322 local x,y,z forces =    0.0000E+00    0.0000E+00    0.0000E+00  setid=       0
 node=  6323 local x,y,z forces =    0.0000E+00    0.0000E+00    0.0000E+00  setid=       0
 node=  6324 local x,y,z forces =    0.0000E+00    0.0000E+00    0.0000E+00  setid=       0
 node=  6325 local x,y,z forces =    0.0000E+00    0.0000E+00    0.0000E+00  setid=       0
 node=  6326 local x,y,z forces =    0.0000E+00    0.0000E+00    0.0000E+00  setid=       0
 node=  6327 local x,y,z forces =    0.0000E+00    0.0000E+00    0.0000E+00  setid=       0
 node=  6328 local x,y,z forces =    0.0000E+00    0.0000E+00    0.0000E+00  setid=       0
 node=  6329 local x,y,z forces =    0.0000E+00    0.0000E+00    0.0000E+00  setid=       0
 node=  6330 local x,y,z forces =    0.0000E+00    0.0000E+00    0.0000E+00  setid=       0
 node=  6331 local x,y,z forces =    0.0000E+00    0.0000E+00    0.0000E+00  setid=       0
 node=  6332 local x,y,z forces =    0.0000E+00    0.0000E+00    0.0000E+00  setid=       0
 node=  6333 local x,y,z forces =    0.0000E+00    0.0000E+00    0.0000E+00  setid=       0
 node=  6334 local x,y,z forces =    0.0000E+00    0.0000E+00    0.0000E+00  setid=       0
 node=  6335 local x,y,z forces =    0.0000E+00    0.0000E+00    0.0000E+00  setid=       0
 node=  6336 local x,y,z forces =    0.0000E+00    0.0000E+00    0.0000E+00  setid=       0
 node=  6337 local x,y,z forces =    0.0000E+00    0.0000E+00    0.0000E+00  setid=       0
 node=  6338 local x,y,z forces =    0.0000E+00    0.0000E+00    0.0000E+00  setid=       0
 node=  6339 local x,y,z forces =    0.0000E+00    0.0000E+00    0.0000E+00  setid=       0
 node=  6340 local x,y,z forces =    0.0000E+00    0.0000E+00    0.0000E+00  setid=       0
 node=  6341 local x,y,z forces =    0.0000E+00    0.0000E+00    0.0000E+00  setid=       0
 node=  6342 local x,y,z forces =    0.0000E+00    0.0000E+00    0.0000E+00  setid=       0
 node=  6343 local x,y,z forces =    0.0000E+00    0.0000E+00    0.0000E+00  setid=       0
 node=  6344 local x,y,z forces =    0.0000E+00    0.0000E+00    0.0000E+00  setid=       0
 node=  6345 local x,y,z forces =    0.0000E+00    0.0000E+00    0.0000E+00  setid=       0
 node=  6346 local x,y,z forces =    0.0000E+00    0.0000E+00    0.0000E+00  setid=       0
 node=  6347 local x,y,z forces =    0.0000E+00    0.0000E+00    0.0000E+00  setid=       0
 node=  6348 local x,y,z forces =    0.0000E+00    0.0000E+00    0.0000E+00  setid=       0
 node=  6349 local x,y,z forces =    0.0000E+00    0.0000E+00    0.0000E+00  setid=       0
 node=  6350 local x,y,z forces =    0.0000E+00    0.0000E+00    0.0000E+00  setid=       0
 node=  6351 local x,y,z forces =    0.0000E+00    0.0000E+00    0.0000E+00  setid=       0
 node=  6352 local x,y,z forces =    0.0000E+00    0.0000E+00    0.0000E+00  setid=       0
 node=  6353 local x,y,z forces =    0.0000E+00    0.0000E+00    0.0000E+00  setid=       0
 node=  6354 local x,y,z forces =    0.0000E+00    0.0000E+00    0.0000E+00  setid=       0
 node=  6355 local x,y,z forces =    0.0000E+00    0.0000E+00    0.0000E+00  setid=       0
 node=  6356 local x,y,z forces =    0.0000E+00    0.0000E+00    0.0000E+00  setid=       0
 node=  6357 local x,y,z forces =    0.0000E+00    0.0000E+00    0.0000E+00  setid=       0
 node=  6358 local x,y,z forces =    0.0000E+00    0.0000E+00    0.0000E+00  setid=       0
 node=  6359 local x,y,z forces =    0.0000E+00    0.0000E+00    0.0000E+00  setid=       0
 node=  6360 local x,y,z forces =    0.0000E+00    0.0000E+00    0.0000E+00  setid=       0
 node=  6361 local x,y,z forces =    0.0000E+00    0.0000E+00    0.0000E+00  setid=       0
 node=  6362 local x,y,z forces =    0.0000E+00    0.0000E+00    0.0000E+00  setid=       0
 node=  6363 local x,y,z forces =    0.0000E+00    0.0000E+00    0.0000E+00  setid=       0
 node=  6364 local x,y,z forces =    0.0000E+00    0.0000E+00    0.0000E+00  setid=       0
 node=  6365 local x,y,z forces =    0.0000E+00    0.0000E+00    0.0000E+00  setid=       0
 node=  6366 local x,y,z forces =    0.0000E+00    0.0000E+00    0.0000E+00  setid=       0
 node=  6367 local x,y,z forces =    0.0000E+00    0.0000E+00    0.0000E+00  setid=       0
 node=  6368 local x,y,z forces =    0.0000E+00    0.0000E+00    0.0000E+00  setid=       0
 node=  6369 local x,y,z forces =    0.0000E+00    0.0000E+00    0.0000E+00  setid=       0
 node=  6370 local x,y,z forces =    0.0000E+00    0.0000E+00    0.0000E+00  setid=       0
 node=  6371 local x,y,z forces =    0.0000E+00    0.0000E+00    0.0000E+00  setid=       0
 node=  6372 local x,y,z forces =    0.0000E+00    0.0000E+00    0.0000E+00  setid=       0
 node=  6373 local x,y,z forces =    0.0000E+00    0.0000E+00    0.0000E+00  setid=       0
 node=  6374 local x,y,z forces =    0.0000E+00    0.0000E+00    0.0000E+00  setid=       0
 node=  6375 local x,y,z forces =    0.0000E+00    0.0000E+00    0.0000E+00  setid=       0
             force resultants   =    0.0000E+00    0.0000E+00    0.0000E+00
 output at time =   2.00000E-04
 node=     1 local x,y,z forces =   -8.3951E+03   -9.7054E+03   -2.6963E+04  setid=       0
 node=     2 local x,y,z forces =   -3.8539E+03   -1.9352E+04   -4.8567E+04  setid=       0
 node=     3 local x,y,z forces =   -6.9254E+02   -1.9730E+04   -4.7799E+04  setid=       0
 node=     4 local x,y,z forces =    2.7890E+03   -2.0785E+04   -5.2065E+04  setid=       0
 node=     5 local x,y,z forces =    8.8365E+03   -1.0812E+04   -2.9696E+04  setid=       0
 node=     6 local x,y,z forces =   -1.4760E+04   -6.1263E+03   -4.1744E+04  setid=       0
 node=     7 local x,y,z forces =   -7.2136E+03   -1.2726E+04   -7.2567E+04  setid=       0
 node=     8 local x,y,z forces =   -1.0237E+03   -1.3385E+04   -7.0063E+04  setid=       0
 node=     9 local x,y,z forces =    5.6493E+03   -1.3743E+04   -7.8238E+04  setid=       0
 node=    10 local x,y,z forces =    1.5791E+04   -6.9565E+03   -4.6392E+04  setid=       0
 node=    11 local x,y,z forces =   -1.2881E+04   -6.2592E+03   -3.5035E+04  setid=       0
 node=    12 local x,y,z forces =   -6.6759E+03   -1.2833E+04   -5.9676E+04  setid=       0
 node=    13 local x,y,z forces =   -6.2070E+02   -1.3346E+04   -5.7033E+04  setid=       0
 node=    14 local x,y,z forces =    5.7171E+03   -1.3805E+04   -6.5197E+04  setid=       0
 node=    15 local x,y,z forces =    1.4219E+04   -7.0300E+03   -3.9841E+04  setid=       0
 node=    16 local x,y,z forces =   -1.2465E+04   -4.6554E+03   -3.4365E+04  setid=       0
 node=    17 local x,y,z forces =   -6.4384E+03   -9.4743E+03   -5.8754E+04  setid=       0
 node=    18 local x,y,z forces =   -4.9416E+02   -9.7703E+03   -5.6357E+04  setid=       0
 node=    19 local x,y,z forces =    5.6492E+03   -1.0105E+04   -6.4816E+04  setid=       0
 node=    20 local x,y,z forces =    1.4031E+04   -5.1494E+03   -3.9726E+04  setid=       0
 node=    21 local x,y,z forces =   -1.2102E+04   -4.1752E+03   -3.3133E+04  setid=       0
 node=    22 local x,y,z forces =   -6.2803E+03   -8.4978E+03   -5.6484E+04  setid=       0
 node=    23 local x,y,z forces =   -4.4243E+02   -8.7453E+03   -5.4166E+04  setid=       0
 node=    24 local x,y,z forces =    5.5686E+03   -8.9804E+03   -6.2813E+04  setid=       0
 node=    25 local x,y,z forces =    1.3799E+04   -4.5529E+03   -3.8777E+04  setid=       0
 node=    26 local x,y,z forces =   -1.1940E+04   -3.3827E+03   -3.2832E+04  setid=       0
 node=    27 local x,y,z forces =   -6.1998E+03   -6.8609E+03   -5.6059E+04  setid=       0
 node=    28 local x,y,z forces =   -4.3102E+02   -7.0250E+03   -5.3875E+04  setid=       0
 node=    29 local x,y,z forces =    5.5033E+03   -7.1841E+03   -6.2655E+04  setid=       0
 node=    30 local x,y,z forces =    1.3722E+04   -3.6356E+03   -3.8724E+04  setid=       0
 node=    31 local x,y,z forces =   -1.1818E+04   -2.8850E+03   -3.2419E+04  setid=       0
 node=    32 local x,y,z forces =   -6.1574E+03   -5.8423E+03   -5.5331E+04  setid=       0
 node=    33 local x,y,z forces =   -4.3397E+02   -5.9645E+03   -5.3218E+04  setid=       0
 node=    34 local x,y,z forces =    5.4575E+03   -6.0769E+03   -6.2080E+04  setid=       0
 node=    35 local x,y,z forces =    1.3649E+04   -3.0689E+03   -3.8455E+04  setid=       0
 node=    36 local x,y,z forces =   -1.1755E+04   -2.3106E+03   -3.2283E+04  setid=       0
 node=    37 local x,y,z forces =   -6.1390E+03   -4.6679E+03   -5.5129E+04  setid=       0
 node=    38 local x,y,z forces =   -4.4419E+02   -4.7471E+03   -5.3081E+04  setid=       0
 node=    39 local x,y,z forces =    5.4247E+03   -4.8245E+03   -6.2004E+04  setid=       0
 node=    40 local x,y,z forces =    1.3617E+04   -2.4340E+03   -3.8428E+04  setid=       0
 node=    41 local x,y,z forces =   -1.1710E+04   -1.8382E+03   -3.2124E+04  setid=       0
 node=    42 local x,y,z forces =   -6.1305E+03   -3.7090E+03   -5.4848E+04  setid=       0
 node=    43 local x,y,z forces =   -4.5535E+02   -3.7644E+03   -5.2835E+04  setid=       0
 node=    44 local x,y,z forces =    5.4007E+03   -3.8178E+03   -6.1799E+04  setid=       0
 node=    45 local x,y,z forces =    1.3589E+04   -1.9242E+03   -3.8333E+04  setid=       0
 node=    46 local x,y,z forces =   -1.1685E+04   -1.3481E+03   -3.2066E+04  setid=       0
 node=    47 local x,y,z forces =   -6.1279E+03   -2.7165E+03   -5.4758E+04  setid=       0
 node=    48 local x,y,z forces =   -4.6568E+02   -2.7508E+03   -5.2772E+04  setid=       0
 node=    49 local x,y,z forces =    5.3835E+03   -2.7857E+03   -6.1764E+04  setid=       0
 node=    50 local x,y,z forces =    1.3574E+04   -1.4032E+03   -3.8321E+04  setid=       0
 node=    51 local x,y,z forces =   -1.1669E+04   -8.9710E+02   -3.2005E+04  setid=       0
 node=    52 local x,y,z forces =   -6.1273E+03   -1.8068E+03   -5.4647E+04  setid=       0
 node=    53 local x,y,z forces =   -4.7349E+02   -1.8278E+03   -5.2675E+04  setid=       0
 node=    54 local x,y,z forces =    5.3719E+03   -1.8491E+03   -6.1685E+04  setid=       0
 node=    55 local x,y,z forces =    1.3563E+04   -9.3090E+02   -3.8284E+04  setid=       0
 node=    56 local x,y,z forces =   -1.1661E+04   -4.4328E+02   -3.1989E+04  setid=       0
 node=    57 local x,y,z forces =   -6.1275E+03   -8.9227E+02   -5.4622E+04  setid=       0
 node=    58 local x,y,z forces =   -4.7844E+02   -9.0174E+02   -5.2659E+04  setid=       0
 node=    59 local x,y,z forces =    5.3652E+03   -9.1166E+02   -6.1679E+04  setid=       0
 node=    60 local x,y,z forces =    1.3558E+04   -4.5885E+02   -3.8283E+04  setid=       0
 node=    61 local x,y,z forces =   -1.1658E+04   -7.2760E-12   -3.1973E+04  setid=       0
 node=    62 local x,y,z forces =   -6.1275E+03   -1.8190E-11   -5.4592E+04  setid=       0
 node=    63 local x,y,z forces =   -4.8005E+02    0.0000E+00   -5.2631E+04  setid=       0
 node=    64 local x,y,z forces =    5.3629E+03    1.4552E-11   -6.1653E+04  setid=       0
 node=    65 local x,y,z forces =    1.3556E+04    3.6380E-12   -3.8271E+04  setid=       0
 node=    66 local x,y,z forces =   -1.1661E+04    4.4328E+02   -3.1989E+04  setid=       0
 node=    67 local x,y,z forces =   -6.1275E+03    8.9227E+02   -5.4622E+04  setid=       0
 node=    68 local x,y,z forces =   -4.7844E+02    9.0174E+02   -5.2659E+04  setid=       0
 node=    69 local x,y,z forces =    5.3652E+03    9.1166E+02   -6.1679E+04  setid=       0
 node=    70 local x,y,z forces =    1.3558E+04    4.5885E+02   -3.8283E+04  setid=       0
 node=    71 local x,y,z forces =   -1.1669E+04    8.9710E+02   -3.2005E+04  setid=       0
 node=    72 local x,y,z forces =   -6.1273E+03    1.8068E+03   -5.4647E+04  setid=       0
 node=    73 local x,y,z forces =   -4.7349E+02    1.8278E+03   -5.2675E+04  setid=       0
 node=    74 local x,y,z forces =    5.3719E+03    1.8491E+03   -6.1685E+04  setid=       0
 node=    75 local x,y,z forces =    1.3563E+04    9.3090E+02   -3.8284E+04  setid=       0
 node=    76 local x,y,z forces =   -1.1685E+04    1.3481E+03   -3.2066E+04  setid=       0
 node=    77 local x,y,z forces =   -6.1279E+03    2.7165E+03   -5.4758E+04  setid=       0
 node=    78 local x,y,z forces =   -4.6568E+02    2.7508E+03   -5.2772E+04  setid=       0
 node=    79 local x,y,z forces =    5.3835E+03    2.7857E+03   -6.1764E+04  setid=       0
 node=    80 local x,y,z forces =    1.3574E+04    1.4032E+03   -3.8321E+04  setid=       0
 node=    81 local x,y,z forces =   -1.1710E+04    1.8382E+03   -3.2124E+04  setid=       0
 node=    82 local x,y,z forces =   -6.1305E+03    3.7090E+03   -5.4848E+04  setid=       0
 node=    83 local x,y,z forces =   -4.5535E+02    3.7644E+03   -5.2835E+04  setid=       0
 node=    84 local x,y,z forces =    5.4007E+03    3.8178E+03   -6.1799E+04  setid=       0
 node=    85 local x,y,z forces =    1.3589E+04    1.9242E+03   -3.8333E+04  setid=       0
 node=    86 local x,y,z forces =   -1.1755E+04    2.3106E+03   -3.2283E+04  setid=       0
 node=    87 local x,y,z forces =   -6.1390E+03    4.6679E+03   -5.5129E+04  setid=       0
 node=    88 local x,y,z forces =   -4.4419E+02    4.7471E+03   -5.3081E+04  setid=       0
 node=    89 local x,y,z forces =    5.4247E+03    4.8245E+03   -6.2004E+04  setid=       0
 node=    90 local x,y,z forces =    1.3617E+04    2.4340E+03   -3.8428E+04  setid=       0
 node=    91 local x,y,z forces =   -1.1818E+04    2.8850E+03   -3.2419E+04  setid=       0
 node=    92 local x,y,z forces =   -6.1574E+03    5.8423E+03   -5.5331E+04  setid=       0
 node=    93 local x,y,z forces =   -4.3397E+02    5.9645E+03   -5.3218E+04  setid=       0
 node=    94 local x,y,z forces =    5.4575E+03    6.0769E+03   -6.2080E+04  setid=       0
 node=    95 local x,y,z forces =    1.3649E+04    3.0689E+03   -3.8455E+04  setid=       0
 node=    96 local x,y,z forces =   -1.1940E+04    3.3827E+03   -3.2832E+04  setid=       0
 node=    97 local x,y,z forces =   -6.1998E+03    6.8609E+03   -5.6059E+04  setid=       0
 node=    98 local x,y,z forces =   -4.3102E+02    7.0250E+03   -5.3875E+04  setid=       0
 node=    99 local x,y,z forces =    5.5033E+03    7.1841E+03   -6.2655E+04  setid=       0
 node=   100 local x,y,z forces =    1.3722E+04    3.6356E+03   -3.8724E+04  setid=       0
 node=   101 local x,y,z forces =   -1.2102E+04    4.1752E+03   -3.3133E+04  setid=       0
 node=   102 local x,y,z forces =   -6.2803E+03    8.4978E+03   -5.6484E+04  setid=       0
 node=   103 local x,y,z forces =   -4.4243E+02    8.7453E+03   -5.4166E+04  setid=       0
 node=   104 local x,y,z forces =    5.5686E+03    8.9804E+03   -6.2813E+04  setid=       0
 node=   105 local x,y,z forces =    1.3799E+04    4.5529E+03   -3.8777E+04  setid=       0
 node=   106 local x,y,z forces =   -1.2465E+04    4.6554E+03   -3.4365E+04  setid=       0
 node=   107 local x,y,z forces =   -6.4384E+03    9.4743E+03   -5.8754E+04  setid=       0
 node=   108 local x,y,z forces =   -4.9416E+02    9.7703E+03   -5.6357E+04  setid=       0
 node=   109 local x,y,z forces =    5.6492E+03    1.0105E+04   -6.4816E+04  setid=       0
 node=   110 local x,y,z forces =    1.4031E+04    5.1494E+03   -3.9726E+04  setid=       0
 node=   111 local x,y,z forces =   -1.2881E+04    6.2592E+03   -3.5035E+04  setid=       0
 node=   112 local x,y,z forces =   -6.6759E+03    1.2833E+04   -5.9676E+04  setid=       0
 node=   113 local x,y,z forces =   -6.2070E+02    1.3346E+04   -5.7033E+04  setid=       0
 node=   114 local x,y,z forces =    5.7171E+03    1.3805E+04   -6.5197E+04  setid=       0
 node=   115 local x,y,z forces =    1.4219E+04    7.0300E+03   -3.9841E+04  setid=       0
 node=   116 local x,y,z forces =   -1.4760E+04    6.1263E+03   -4.1744E+04  setid=       0
 node=   117 local x,y,z forces =   -7.2136E+03    1.2726E+04   -7.2567E+04  setid=       0
 node=   118 local x,y,z forces =   -1.0237E+03    1.3385E+04   -7.0063E+04  setid=       0
 node=   119 local x,y,z forces =    5.6493E+03    1.3743E+04   -7.8238E+04  setid=       0
 node=   120 local x,y,z forces =    1.5791E+04    6.9565E+03   -4.6392E+04  setid=       0
 node=   121 local x,y,z forces =   -8.3951E+03    9.7054E+03   -2.6963E+04  setid=       0
 node=   122 local x,y,z forces =   -3.8539E+03    1.9352E+04   -4.8567E+04  setid=       0
 node=   123 local x,y,z forces =   -6.9254E+02    1.9730E+04   -4.7799E+04  setid=       0
 node=   124 local x,y,z forces =    2.7890E+03    2.0785E+04   -5.2065E+04  setid=       0
 node=   125 local x,y,z forces =    8.8365E+03    1.0812E+04   -2.9696E+04  setid=       0
 node=  3311 local x,y,z forces =   -8.0706E+02    0.0000E+00    0.0000E+00  setid=       3
 node=  6251 local x,y,z forces =   -8.8199E+03   -1.0762E+04    0.0000E+00  setid=       0
 node=  6252 local x,y,z forces =   -2.8426E+03   -2.0718E+04    0.0000E+00  setid=       0
 node=  6253 local x,y,z forces =    6.1889E+02   -1.9730E+04    0.0000E+00  setid=       0
 node=  6254 local x,y,z forces =    3.8011E+03   -1.9419E+04    0.0000E+00  setid=       0
 node=  6255 local x,y,z forces =    8.4119E+03   -9.7550E+03    0.0000E+00  setid=       0
 node=  6256 local x,y,z forces =   -1.5750E+04   -6.9155E+03    0.0000E+00  setid=       0
 node=  6257 local x,y,z forces =   -5.7275E+03   -1.3692E+04    0.0000E+00  setid=       0
 node=  6258 local x,y,z forces =    9.1467E+02   -1.3385E+04    0.0000E+00  setid=       0
 node=  6259 local x,y,z forces =    7.1369E+03   -1.2777E+04    0.0000E+00  setid=       0
 node=  6260 local x,y,z forces =    1.4801E+04   -6.1671E+03    0.0000E+00  setid=       0
 node=  6261 local x,y,z forces =   -1.4162E+04   -6.9889E+03    0.0000E+00  setid=       0
 node=  6262 local x,y,z forces =   -5.7631E+03   -1.3752E+04    0.0000E+00  setid=       0
 node=  6263 local x,y,z forces =    5.5606E+02   -1.3346E+04    0.0000E+00  setid=       0
 node=  6264 local x,y,z forces =    6.6313E+03   -1.2886E+04    0.0000E+00  setid=       0
 node=  6265 local x,y,z forces =    1.2938E+04   -6.3001E+03    0.0000E+00  setid=       0
 node=  6266 local x,y,z forces =   -1.3960E+04   -5.1208E+03    0.0000E+00  setid=       0
 node=  6267 local x,y,z forces =   -5.6845E+03   -1.0067E+04    0.0000E+00  setid=       0
 node=  6268 local x,y,z forces =    4.4550E+02   -9.7705E+03    0.0000E+00  setid=       0
 node=  6269 local x,y,z forces =    6.4042E+03   -9.5119E+03    0.0000E+00  setid=       0
 node=  6270 local x,y,z forces =    1.2536E+04   -4.6839E+03    0.0000E+00  setid=       0
 node=  6271 local x,y,z forces =   -1.3718E+04   -4.5300E+03    0.0000E+00  setid=       0
 node=  6272 local x,y,z forces =   -5.5987E+03   -8.9503E+03    0.0000E+00  setid=       0
 node=  6273 local x,y,z forces =    4.0111E+02   -8.7455E+03    0.0000E+00  setid=       0
 node=  6274 local x,y,z forces =    6.2515E+03   -8.5281E+03    0.0000E+00  setid=       0
 node=  6275 local x,y,z forces =    1.2182E+04   -4.1979E+03    0.0000E+00  setid=       0
 node=  6276 local x,y,z forces =   -1.3635E+04   -3.6193E+03    0.0000E+00  setid=       0
 node=  6277 local x,y,z forces =   -5.5317E+03   -7.1623E+03    0.0000E+00  setid=       0
 node=  6278 local x,y,z forces =    3.9230E+02   -7.0251E+03    0.0000E+00  setid=       0
 node=  6279 local x,y,z forces =    6.1727E+03   -6.8827E+03    0.0000E+00  setid=       0
 node=  6280 local x,y,z forces =    1.2027E+04   -3.3990E+03    0.0000E+00  setid=       0
 node=  6281 local x,y,z forces =   -1.3559E+04   -3.0565E+03    0.0000E+00  setid=       0
 node=  6282 local x,y,z forces =   -5.4854E+03   -6.0603E+03    0.0000E+00  setid=       0
 node=  6283 local x,y,z forces =    3.9587E+02   -5.9646E+03    0.0000E+00  setid=       0
 node=  6284 local x,y,z forces =    6.1308E+03   -5.8589E+03    0.0000E+00  setid=       0
 node=  6285 local x,y,z forces =    1.1909E+04   -2.8974E+03    0.0000E+00  setid=       0
 node=  6286 local x,y,z forces =   -1.3524E+04   -2.4252E+03    0.0000E+00  setid=       0
 node=  6287 local x,y,z forces =   -5.4530E+03   -4.8127E+03    0.0000E+00  setid=       0
 node=  6288 local x,y,z forces =    4.0564E+02   -4.7471E+03    0.0000E+00  setid=       0
 node=  6289 local x,y,z forces =    6.1121E+03   -4.6798E+03    0.0000E+00  setid=       0
 node=  6290 local x,y,z forces =    1.1849E+04   -2.3194E+03    0.0000E+00  setid=       0
 node=  6291 local x,y,z forces =   -1.3494E+04   -1.9178E+03    0.0000E+00  setid=       0
 node=  6292 local x,y,z forces =   -5.4296E+03   -3.8092E+03    0.0000E+00  setid=       0
 node=  6293 local x,y,z forces =    4.1602E+02   -3.7644E+03    0.0000E+00  setid=       0
 node=  6294 local x,y,z forces =    6.1031E+03   -3.7177E+03    0.0000E+00  setid=       0
 node=  6295 local x,y,z forces =    1.1805E+04   -1.8446E+03    0.0000E+00  setid=       0
 node=  6296 local x,y,z forces =   -1.3478E+04   -1.3989E+03    0.0000E+00  setid=       0
 node=  6297 local x,y,z forces =   -5.4130E+03   -2.7799E+03    0.0000E+00  setid=       0
 node=  6298 local x,y,z forces =    4.2552E+02   -2.7509E+03    0.0000E+00  setid=       0
 node=  6299 local x,y,z forces =    6.0999E+03   -2.7224E+03    0.0000E+00  setid=       0
 node=  6300 local x,y,z forces =    1.1782E+04   -1.3524E+03    0.0000E+00  setid=       0
 node=  6301 local x,y,z forces =   -1.3465E+04   -9.2819E+02    0.0000E+00  setid=       0
 node=  6302 local x,y,z forces =   -5.4019E+03   -1.8454E+03    0.0000E+00  setid=       0
 node=  6303 local x,y,z forces =    4.3266E+02   -1.8279E+03    0.0000E+00  setid=       0
 node=  6304 local x,y,z forces =    6.0987E+03   -1.8105E+03    0.0000E+00  setid=       0
 node=  6305 local x,y,z forces =    1.1766E+04   -8.9979E+02    0.0000E+00  setid=       0
 node=  6306 local x,y,z forces =   -1.3460E+04   -4.5757E+02    0.0000E+00  setid=       0
 node=  6307 local x,y,z forces =   -5.3955E+03   -9.0994E+02    0.0000E+00  setid=       0
 node=  6308 local x,y,z forces =    4.3716E+02   -9.0175E+02    0.0000E+00  setid=       0
 node=  6309 local x,y,z forces =    6.0986E+03   -8.9403E+02    0.0000E+00  setid=       0
 node=  6310 local x,y,z forces =    1.1759E+04   -4.4455E+02    0.0000E+00  setid=       0
 node=  6311 local x,y,z forces =   -1.3458E+04   -4.0018E-11    0.0000E+00  setid=       0
 node=  6312 local x,y,z forces =   -5.3933E+03   -1.0004E-10    0.0000E+00  setid=       0
 node=  6313 local x,y,z forces =    4.3865E+02    7.8217E-11    0.0000E+00  setid=       0
 node=  6314 local x,y,z forces =    6.0985E+03    4.4565E-10    0.0000E+00  setid=       0
 node=  6315 local x,y,z forces =    1.1757E+04    2.9468E-10    0.0000E+00  setid=       0
 node=  6316 local x,y,z forces =   -1.3460E+04    4.5757E+02    0.0000E+00  setid=       0
 node=  6317 local x,y,z forces =   -5.3955E+03    9.0994E+02    0.0000E+00  setid=       0
 node=  6318 local x,y,z forces =    4.3716E+02    9.0175E+02    0.0000E+00  setid=       0
 node=  6319 local x,y,z forces =    6.0986E+03    8.9403E+02    0.0000E+00  setid=       0
 node=  6320 local x,y,z forces =    1.1759E+04    4.4455E+02    0.0000E+00  setid=       0
 node=  6321 local x,y,z forces =   -1.3465E+04    9.2819E+02    0.0000E+00  setid=       0
 node=  6322 local x,y,z forces =   -5.4019E+03    1.8454E+03    0.0000E+00  setid=       0
 node=  6323 local x,y,z forces =    4.3266E+02    1.8279E+03    0.0000E+00  setid=       0
 node=  6324 local x,y,z forces =    6.0987E+03    1.8105E+03    0.0000E+00  setid=       0
 node=  6325 local x,y,z forces =    1.1766E+04    8.9979E+02    0.0000E+00  setid=       0
 node=  6326 local x,y,z forces =   -1.3478E+04    1.3989E+03    0.0000E+00  setid=       0
 node=  6327 local x,y,z forces =   -5.4130E+03    2.7799E+03    0.0000E+00  setid=       0
 node=  6328 local x,y,z forces =    4.2552E+02    2.7509E+03    0.0000E+00  setid=       0
 node=  6329 local x,y,z forces =    6.0999E+03    2.7224E+03    0.0000E+00  setid=       0
 node=  6330 local x,y,z forces =    1.1782E+04    1.3524E+03    0.0000E+00  setid=       0
 node=  6331 local x,y,z forces =   -1.3494E+04    1.9178E+03    0.0000E+00  setid=       0
 node=  6332 local x,y,z forces =   -5.4296E+03    3.8092E+03    0.0000E+00  setid=       0
 node=  6333 local x,y,z forces =    4.1602E+02    3.7644E+03    0.0000E+00  setid=       0
 node=  6334 local x,y,z forces =    6.1031E+03    3.7177E+03    0.0000E+00  setid=       0
 node=  6335 local x,y,z forces =    1.1805E+04    1.8446E+03    0.0000E+00  setid=       0
 node=  6336 local x,y,z forces =   -1.3524E+04    2.4252E+03    0.0000E+00  setid=       0
 node=  6337 local x,y,z forces =   -5.4530E+03    4.8127E+03    0.0000E+00  setid=       0
 node=  6338 local x,y,z forces =    4.0564E+02    4.7471E+03    0.0000E+00  setid=       0
 node=  6339 local x,y,z forces =    6.1121E+03    4.6798E+03    0.0000E+00  setid=       0
 node=  6340 local x,y,z forces =    1.1849E+04    2.3194E+03    0.0000E+00  setid=       0
 node=  6341 local x,y,z forces =   -1.3559E+04    3.0565E+03    0.0000E+00  setid=       0
 node=  6342 local x,y,z forces =   -5.4854E+03    6.0603E+03    0.0000E+00  setid=       0
 node=  6343 local x,y,z forces =    3.9587E+02    5.9646E+03    0.0000E+00  setid=       0
 node=  6344 local x,y,z forces =    6.1308E+03    5.8589E+03    0.0000E+00  setid=       0
 node=  6345 local x,y,z forces =    1.1909E+04    2.8974E+03    0.0000E+00  setid=       0
 node=  6346 local x,y,z forces =   -1.3635E+04    3.6193E+03    0.0000E+00  setid=       0
 node=  6347 local x,y,z forces =   -5.5317E+03    7.1623E+03    0.0000E+00  setid=       0
 node=  6348 local x,y,z forces =    3.9230E+02    7.0251E+03    0.0000E+00  setid=       0
 node=  6349 local x,y,z forces =    6.1727E+03    6.8827E+03    0.0000E+00  setid=       0
 node=  6350 local x,y,z forces =    1.2027E+04    3.3990E+03    0.0000E+00  setid=       0
 node=  6351 local x,y,z forces =   -1.3718E+04    4.5300E+03    0.0000E+00  setid=       0
 node=  6352 local x,y,z forces =   -5.5987E+03    8.9503E+03    0.0000E+00  setid=       0
 node=  6353 local x,y,z forces =    4.0111E+02    8.7455E+03    0.0000E+00  setid=       0
 node=  6354 local x,y,z forces =    6.2515E+03    8.5281E+03    0.0000E+00  setid=       0
 node=  6355 local x,y,z forces =    1.2182E+04    4.1979E+03    0.0000E+00  setid=       0
 node=  6356 local x,y,z forces =   -1.3960E+04    5.1208E+03    0.0000E+00  setid=       0
 node=  6357 local x,y,z forces =   -5.6845E+03    1.0067E+04    0.0000E+00  setid=       0
 node=  6358 local x,y,z forces =    4.4550E+02    9.7705E+03    0.0000E+00  setid=       0
 node=  6359 local x,y,z forces =    6.4042E+03    9.5119E+03    0.0000E+00  setid=       0
 node=  6360 local x,y,z forces =    1.2536E+04    4.6839E+03    0.0000E+00  setid=       0
 node=  6361 local x,y,z forces =   -1.4162E+04    6.9889E+03    0.0000E+00  setid=       0
 node=  6362 local x,y,z forces =   -5.7631E+03    1.3752E+04    0.0000E+00  setid=       0
 node=  6363 local x,y,z forces =    5.5606E+02    1.3346E+04    0.0000E+00  setid=       0
 node=  6364 local x,y,z forces =    6.6313E+03    1.2886E+04    0.0000E+00  setid=       0
 node=  6365 local x,y,z forces =    1.2938E+04    6.3001E+03    0.0000E+00  setid=       0
 node=  6366 local x,y,z forces =   -1.5750E+04    6.9155E+03    0.0000E+00  setid=       0
 node=  6367 local x,y,z forces =   -5.7275E+03    1.3692E+04    0.0000E+00  setid=       0
 node=  6368 local x,y,z forces =    9.1467E+02    1.3385E+04    0.0000E+00  setid=       0
 node=  6369 local x,y,z forces =    7.1369E+03    1.2777E+04    0.0000E+00  setid=       0
 node=  6370 local x,y,z forces =    1.4801E+04    6.1671E+03    0.0000E+00  setid=       0
 node=  6371 local x,y,z forces =   -8.8199E+03    1.0762E+04    0.0000E+00  setid=       0
 node=  6372 local x,y,z forces =   -2.8426E+03    2.0718E+04    0.0000E+00  setid=       0
 node=  6373 local x,y,z forces =    6.1889E+02    1.9730E+04    0.0000E+00  setid=       0
 node=  6374 local x,y,z forces =    3.8011E+03    1.9419E+04    0.0000E+00  setid=       0
 node=  6375 local x,y,z forces =    8.4119E+03    9.7550E+03    0.0000E+00  setid=       0
             force resultants   =    2.3497E+00   -4.2928E-10   -6.1491E+06
 output at time =   4.00000E-04
 node=     1 local x,y,z forces =   -1.6749E+04   -1.9291E+04   -5.3696E+04  setid=       0
 node=     2 local x,y,z forces =   -7.8268E+03   -3.8541E+04   -9.6839E+04  setid=       0
 node=     3 local x,y,z forces =   -1.5500E+03   -3.9446E+04   -9.5659E+04  setid=       0
 node=     4 local x,y,z forces =    5.4551E+03   -4.1707E+04   -1.0457E+05  setid=       0
 node=     5 local x,y,z forces =    1.7711E+04   -2.1731E+04   -5.9710E+04  setid=       0
 node=     6 local x,y,z forces =   -2.9420E+04   -1.2155E+04   -8.3085E+04  setid=       0
 node=     7 local x,y,z forces =   -1.4600E+04   -2.5324E+04   -1.4463E+05  setid=       0
 node=     8 local x,y,z forces =   -2.2909E+03   -2.6754E+04   -1.4019E+05  setid=       0
 node=     9 local x,y,z forces =    1.1119E+04   -2.7584E+04   -1.5714E+05  setid=       0
 node=    10 local x,y,z forces =    3.1674E+04   -1.3995E+04   -9.3298E+04  setid=       0
 node=    11 local x,y,z forces =   -2.5623E+04   -1.2430E+04   -6.9629E+04  setid=       0
 node=    12 local x,y,z forces =   -1.3454E+04   -2.5551E+04   -1.1883E+05  setid=       0
 node=    13 local x,y,z forces =   -1.3881E+03   -2.6690E+04   -1.1410E+05  setid=       0
 node=    14 local x,y,z forces =    1.1325E+04   -2.7721E+04   -1.3101E+05  setid=       0
 node=    15 local x,y,z forces =    2.8566E+04   -1.4147E+04   -8.0202E+04  setid=       0
 node=    16 local x,y,z forces =   -2.4763E+04   -9.2515E+03   -6.8218E+04  setid=       0
 node=    17 local x,y,z forces =   -1.2958E+04   -1.8869E+04   -1.1692E+05  setid=       0
 node=    18 local x,y,z forces =   -1.1031E+03   -1.9537E+04   -1.1274E+05  setid=       0
 node=    19 local x,y,z forces =    1.1210E+04   -2.0284E+04   -1.3031E+05  setid=       0
 node=    20 local x,y,z forces =    2.8217E+04   -1.0356E+04   -8.0038E+04  setid=       0
 node=    21 local x,y,z forces =   -2.4020E+04   -8.3052E+03   -6.5712E+04  setid=       0
 node=    22 local x,y,z forces =   -1.2631E+04   -1.6935E+04   -1.1234E+05  setid=       0
 node=    23 local x,y,z forces =   -9.8542E+02   -1.7489E+04   -1.0835E+05  setid=       0
 node=    24 local x,y,z forces =    1.1059E+04   -1.8020E+04   -1.2633E+05  setid=       0
 node=    25 local x,y,z forces =    2.7769E+04   -9.1511E+03   -7.8176E+04  setid=       0
 node=    26 local x,y,z forces =   -2.3685E+04   -6.7343E+03   -6.5076E+04  setid=       0
 node=    27 local x,y,z forces =   -1.2467E+04   -1.3679E+04   -1.1145E+05  setid=       0
 node=    28 local x,y,z forces =   -9.5881E+02   -1.4048E+04   -1.0777E+05  setid=       0
 node=    29 local x,y,z forces =    1.0930E+04   -1.4408E+04   -1.2605E+05  setid=       0
 node=    30 local x,y,z forces =    2.7627E+04   -7.3022E+03   -7.8104E+04  setid=       0
 node=    31 local x,y,z forces =   -2.3433E+04   -5.7476E+03   -6.4229E+04  setid=       0
 node=    32 local x,y,z forces =   -1.2382E+04   -1.1654E+04   -1.0997E+05  setid=       0
 node=    33 local x,y,z forces =   -9.6460E+02   -1.1928E+04   -1.0646E+05  setid=       0
 node=    34 local x,y,z forces =    1.0838E+04   -1.2184E+04   -1.2492E+05  setid=       0
 node=    35 local x,y,z forces =    2.7489E+04   -6.1609E+03   -7.7585E+04  setid=       0
 node=    36 local x,y,z forces =   -2.3302E+04   -4.6059E+03   -6.3940E+04  setid=       0
 node=    37 local x,y,z forces =   -1.2347E+04   -9.3144E+03   -1.0955E+05  setid=       0
 node=    38 local x,y,z forces =   -9.8707E+02   -9.4934E+03   -1.0618E+05  setid=       0
 node=    39 local x,y,z forces =    1.0771E+04   -9.6695E+03   -1.2479E+05  setid=       0
 node=    40 local x,y,z forces =    2.7429E+04   -4.8838E+03   -7.7547E+04  setid=       0
 node=    41 local x,y,z forces =   -2.3209E+04   -3.6658E+03   -6.3611E+04  setid=       0
 node=    42 local x,y,z forces =   -1.2332E+04   -7.4032E+03   -1.0897E+05  setid=       0
 node=    43 local x,y,z forces =   -1.0118E+03   -7.5283E+03   -1.0569E+05  setid=       0
 node=    44 local x,y,z forces =    1.0721E+04   -7.6501E+03   -1.2439E+05  setid=       0
 node=    45 local x,y,z forces =    2.7376E+04   -3.8594E+03   -7.7367E+04  setid=       0
 node=    46 local x,y,z forces =   -2.3158E+04   -2.6893E+03   -6.3488E+04  setid=       0
 node=    47 local x,y,z forces =   -1.2328E+04   -5.4234E+03   -1.0878E+05  setid=       0
 node=    48 local x,y,z forces =   -1.0348E+03   -5.5013E+03   -1.0556E+05  setid=       0
 node=    49 local x,y,z forces =    1.0685E+04   -5.5808E+03   -1.2433E+05  setid=       0
 node=    50 local x,y,z forces =    2.7349E+04   -2.8135E+03   -7.7349E+04  setid=       0
 node=    51 local x,y,z forces =   -2.3124E+04   -1.7900E+03   -6.3361E+04  setid=       0
 node=    52 local x,y,z forces =   -1.2328E+04   -3.6076E+03   -1.0856E+05  setid=       0
 node=    53 local x,y,z forces =   -1.0522E+03   -3.6555E+03   -1.0537E+05  setid=       0
 node=    54 local x,y,z forces =    1.0661E+04   -3.7039E+03   -1.2417E+05  setid=       0
 node=    55 local x,y,z forces =    2.7327E+04   -1.8662E+03   -7.7280E+04  setid=       0
 node=    56 local x,y,z forces =   -2.3108E+04   -8.8463E+02   -6.3326E+04  setid=       0
 node=    57 local x,y,z forces =   -1.2329E+04   -1.7818E+03   -1.0850E+05  setid=       0
 node=    58 local x,y,z forces =   -1.0633E+03   -1.8034E+03   -1.0534E+05  setid=       0
 node=    59 local x,y,z forces =    1.0647E+04   -1.8260E+03   -1.2416E+05  setid=       0
 node=    60 local x,y,z forces =    2.7317E+04   -9.1975E+02   -7.7280E+04  setid=       0
 node=    61 local x,y,z forces =   -2.3102E+04   -2.1828E-11   -6.3294E+04  setid=       0
 node=    62 local x,y,z forces =   -1.2330E+04   -2.5466E-11   -1.0844E+05  setid=       0
 node=    63 local x,y,z forces =   -1.0669E+03   -7.2760E-12   -1.0528E+05  setid=       0
 node=    64 local x,y,z forces =    1.0642E+04    7.2760E-12   -1.2411E+05  setid=       0
 node=    65 local x,y,z forces =    2.7313E+04    1.0914E-11   -7.7256E+04  setid=       0
 node=    66 local x,y,z forces =   -2.3108E+04    8.8463E+02   -6.3326E+04  setid=       0
 node=    67 local x,y,z forces =   -1.2329E+04    1.7818E+03   -1.0850E+05  setid=       0
 node=    68 local x,y,z forces =   -1.0633E+03    1.8034E+03   -1.0534E+05  setid=       0
 node=    69 local x,y,z forces =    1.0647E+04    1.8260E+03   -1.2416E+05  setid=       0
 node=    70 local x,y,z forces =    2.7317E+04    9.1975E+02   -7.7280E+04  setid=       0
 node=    71 local x,y,z forces =   -2.3124E+04    1.7900E+03   -6.3361E+04  setid=       0
 node=    72 local x,y,z forces =   -1.2328E+04    3.6076E+03   -1.0856E+05  setid=       0
 node=    73 local x,y,z forces =   -1.0522E+03    3.6555E+03   -1.0537E+05  setid=       0
 node=    74 local x,y,z forces =    1.0661E+04    3.7039E+03   -1.2417E+05  setid=       0
 node=    75 local x,y,z forces =    2.7327E+04    1.8662E+03   -7.7280E+04  setid=       0
 node=    76 local x,y,z forces =   -2.3158E+04    2.6893E+03   -6.3488E+04  setid=       0
 node=    77 local x,y,z forces =   -1.2328E+04    5.4234E+03   -1.0878E+05  setid=       0
 node=    78 local x,y,z forces =   -1.0348E+03    5.5013E+03   -1.0556E+05  setid=       0
 node=    79 local x,y,z forces =    1.0685E+04    5.5808E+03   -1.2433E+05  setid=       0
 node=    80 local x,y,z forces =    2.7349E+04    2.8135E+03   -7.7349E+04  setid=       0
 node=    81 local x,y,z forces =   -2.3209E+04    3.6658E+03   -6.3611E+04  setid=       0
 node=    82 local x,y,z forces =   -1.2332E+04    7.4032E+03   -1.0897E+05  setid=       0
 node=    83 local x,y,z forces =   -1.0118E+03    7.5283E+03   -1.0569E+05  setid=       0
 node=    84 local x,y,z forces =    1.0721E+04    7.6501E+03   -1.2439E+05  setid=       0
 node=    85 local x,y,z forces =    2.7376E+04    3.8594E+03   -7.7367E+04  setid=       0
 node=    86 local x,y,z forces =   -2.3302E+04    4.6059E+03   -6.3940E+04  setid=       0
 node=    87 local x,y,z forces =   -1.2347E+04    9.3144E+03   -1.0955E+05  setid=       0
 node=    88 local x,y,z forces =   -9.8707E+02    9.4934E+03   -1.0618E+05  setid=       0
 node=    89 local x,y,z forces =    1.0771E+04    9.6695E+03   -1.2479E+05  setid=       0
 node=    90 local x,y,z forces =    2.7429E+04    4.8838E+03   -7.7547E+04  setid=       0
 node=    91 local x,y,z forces =   -2.3433E+04    5.7476E+03   -6.4229E+04  setid=       0
 node=    92 local x,y,z forces =   -1.2382E+04    1.1654E+04   -1.0997E+05  setid=       0
 node=    93 local x,y,z forces =   -9.6460E+02    1.1928E+04   -1.0646E+05  setid=       0
 node=    94 local x,y,z forces =    1.0838E+04    1.2184E+04   -1.2492E+05  setid=       0
 node=    95 local x,y,z forces =    2.7489E+04    6.1609E+03   -7.7585E+04  setid=       0
 node=    96 local x,y,z forces =   -2.3685E+04    6.7343E+03   -6.5076E+04  setid=       0
 node=    97 local x,y,z forces =   -1.2467E+04    1.3679E+04   -1.1145E+05  setid=       0
 node=    98 local x,y,z forces =   -9.5881E+02    1.4048E+04   -1.0777E+05  setid=       0
 node=    99 local x,y,z forces =    1.0930E+04    1.4408E+04   -1.2605E+05  setid=       0
 node=   100 local x,y,z forces =    2.7627E+04    7.3022E+03   -7.8104E+04  setid=       0
 node=   101 local x,y,z forces =   -2.4020E+04    8.3052E+03   -6.5712E+04  setid=       0
 node=   102 local x,y,z forces =   -1.2631E+04    1.6935E+04   -1.1234E+05  setid=       0
 node=   103 local x,y,z forces =   -9.8542E+02    1.7489E+04   -1.0835E+05  setid=       0
 node=   104 local x,y,z forces =    1.1059E+04    1.8020E+04   -1.2633E+05  setid=       0
 node=   105 local x,y,z forces =    2.7769E+04    9.1511E+03   -7.8176E+04  setid=       0
 node=   106 local x,y,z forces =   -2.4763E+04    9.2515E+03   -6.8218E+04  setid=       0
 node=   107 local x,y,z forces =   -1.2958E+04    1.8869E+04   -1.1692E+05  setid=       0
 node=   108 local x,y,z forces =   -1.1031E+03    1.9537E+04   -1.1274E+05  setid=       0
 node=   109 local x,y,z forces =    1.1210E+04    2.0284E+04   -1.3031E+05  setid=       0
 node=   110 local x,y,z forces =    2.8217E+04    1.0356E+04   -8.0038E+04  setid=       0
 node=   111 local x,y,z forces =   -2.5623E+04    1.2430E+04   -6.9629E+04  setid=       0
 node=   112 local x,y,z forces =   -1.3454E+04    2.5551E+04   -1.1883E+05  setid=       0
 node=   113 local x,y,z forces =   -1.3881E+03    2.6690E+04   -1.1410E+05  setid=       0
 node=   114 local x,y,z forces =    1.1325E+04    2.7721E+04   -1.3101E+05  setid=       0
 node=   115 local x,y,z forces =    2.8566E+04    1.4147E+04   -8.0202E+04  setid=       0
 node=   116 local x,y,z forces =   -2.9420E+04    1.2155E+04   -8.3085E+04  setid=       0
 node=   117 local x,y,z forces =   -1.4600E+04    2.5324E+04   -1.4463E+05  setid=       0
 node=   118 local x,y,z forces =   -2.2909E+03    2.6754E+04   -1.4019E+05  setid=       0
 node=   119 local x,y,z forces =    1.1119E+04    2.7584E+04   -1.5714E+05  setid=       0
 node=   120 local x,y,z forces =    3.1674E+04    1.3995E+04   -9.3298E+04  setid=       0
 node=   121 local x,y,z forces =   -1.6749E+04    1.9291E+04   -5.3696E+04  setid=       0
 node=   122 local x,y,z forces =   -7.8268E+03    3.8541E+04   -9.6839E+04  setid=       0
 node=   123 local x,y,z forces =   -1.5500E+03    3.9446E+04   -9.5659E+04  setid=       0
 node=   124 local x,y,z forces =    5.4551E+03    4.1707E+04   -1.0457E+05  setid=       0
 node=   125 local x,y,z forces =    1.7711E+04    2.1731E+04   -5.9710E+04  setid=       0
 node=  3311 local x,y,z forces =   -1.2504E+03    0.0000E+00    0.0000E+00  setid=       3
 node=  6251 local x,y,z forces =   -1.7678E+04   -2.1623E+04    0.0000E+00  setid=       0
 node=  6252 local x,y,z forces =   -5.5750E+03   -4.1562E+04    0.0000E+00  setid=       0
 node=  6253 local x,y,z forces =    1.3852E+03   -3.9445E+04    0.0000E+00  setid=       0
 node=  6254 local x,y,z forces =    7.7086E+03   -3.8684E+04    0.0000E+00  setid=       0
 node=  6255 local x,y,z forces =    1.6782E+04   -1.9397E+04    0.0000E+00  setid=       0
 node=  6256 local x,y,z forces =   -3.1590E+04   -1.3905E+04    0.0000E+00  setid=       0
 node=  6257 local x,y,z forces =   -1.1295E+04   -2.7472E+04    0.0000E+00  setid=       0
 node=  6258 local x,y,z forces =    2.0455E+03   -2.6755E+04    0.0000E+00  setid=       0
 node=  6259 local x,y,z forces =    1.4427E+04   -2.5436E+04    0.0000E+00  setid=       0
 node=  6260 local x,y,z forces =    2.9502E+04   -1.2244E+04    0.0000E+00  setid=       0
 node=  6261 local x,y,z forces =   -2.8445E+04   -1.4056E+04    0.0000E+00  setid=       0
 node=  6262 local x,y,z forces =   -1.1430E+04   -2.7605E+04    0.0000E+00  setid=       0
 node=  6263 local x,y,z forces =    1.2406E+03   -2.6690E+04    0.0000E+00  setid=       0
 node=  6264 local x,y,z forces =    1.3352E+04   -2.5667E+04    0.0000E+00  setid=       0
 node=  6265 local x,y,z forces =    2.5742E+04   -1.2520E+04    0.0000E+00  setid=       0
 node=  6266 local x,y,z forces =   -2.8066E+04   -1.0293E+04    0.0000E+00  setid=       0
 node=  6267 local x,y,z forces =   -1.1291E+04   -2.0200E+04    0.0000E+00  setid=       0
 node=  6268 local x,y,z forces =    9.9126E+02   -1.9537E+04    0.0000E+00  setid=       0
 node=  6269 local x,y,z forces =    1.2879E+04   -1.8952E+04    0.0000E+00  setid=       0
 node=  6270 local x,y,z forces =    2.4913E+04   -9.3147E+03    0.0000E+00  setid=       0
 node=  6271 local x,y,z forces =   -2.7598E+04   -9.1002E+03    0.0000E+00  setid=       0
 node=  6272 local x,y,z forces =   -1.1128E+04   -1.7953E+04    0.0000E+00  setid=       0
 node=  6273 local x,y,z forces =    8.9013E+02   -1.7489E+04    0.0000E+00  setid=       0
 node=  6274 local x,y,z forces =    1.2564E+04   -1.7002E+04    0.0000E+00  setid=       0
 node=  6275 local x,y,z forces =    2.4189E+04   -8.3559E+03    0.0000E+00  setid=       0
 node=  6276 local x,y,z forces =   -2.7442E+04   -7.2655E+03    0.0000E+00  setid=       0
 node=  6277 local x,y,z forces =   -1.0996E+04   -1.4360E+04    0.0000E+00  setid=       0
 node=  6278 local x,y,z forces =    8.6952E+02   -1.4049E+04    0.0000E+00  setid=       0
 node=  6279 local x,y,z forces =    1.2405E+04   -1.3728E+04    0.0000E+00  setid=       0
 node=  6280 local x,y,z forces =    2.3868E+04   -6.7708E+03    0.0000E+00  setid=       0
 node=  6281 local x,y,z forces =   -2.7295E+04   -6.1330E+03    0.0000E+00  setid=       0
 node=  6282 local x,y,z forces =   -1.0903E+04   -1.2147E+04    0.0000E+00  setid=       0
 node=  6283 local x,y,z forces =    8.7689E+02   -1.1928E+04    0.0000E+00  setid=       0
 node=  6284 local x,y,z forces =    1.2321E+04   -1.1691E+04    0.0000E+00  setid=       0
 node=  6285 local x,y,z forces =    2.3626E+04   -5.7754E+03    0.0000E+00  setid=       0
 node=  6286 local x,y,z forces =   -2.7228E+04   -4.8638E+03    0.0000E+00  setid=       0
 node=  6287 local x,y,z forces =   -1.0837E+04   -9.6427E+03    0.0000E+00  setid=       0
 node=  6288 local x,y,z forces =    8.9851E+02   -9.4935E+03    0.0000E+00  setid=       0
 node=  6289 local x,y,z forces =    1.2285E+04   -9.3413E+03    0.0000E+00  setid=       0
 node=  6290 local x,y,z forces =    2.3502E+04   -4.6258E+03    0.0000E+00  setid=       0
 node=  6291 local x,y,z forces =   -2.7170E+04   -3.8450E+03    0.0000E+00  setid=       0
 node=  6292 local x,y,z forces =   -1.0788E+04   -7.6306E+03    0.0000E+00  setid=       0
 node=  6293 local x,y,z forces =    9.2160E+02   -7.5284E+03    0.0000E+00  setid=       0
 node=  6294 local x,y,z forces =    1.2269E+04   -7.4228E+03    0.0000E+00  setid=       0
 node=  6295 local x,y,z forces =    2.3413E+04   -3.6802E+03    0.0000E+00  setid=       0
 node=  6296 local x,y,z forces =   -2.7140E+04   -2.8037E+03    0.0000E+00  setid=       0
 node=  6297 local x,y,z forces =   -1.0753E+04   -5.5676E+03    0.0000E+00  setid=       0
 node=  6298 local x,y,z forces =    9.4285E+02   -5.5014E+03    0.0000E+00  setid=       0
 node=  6299 local x,y,z forces =    1.2264E+04   -5.4366E+03    0.0000E+00  setid=       0
 node=  6300 local x,y,z forces =    2.3365E+04   -2.6991E+03    0.0000E+00  setid=       0
 node=  6301 local x,y,z forces =   -2.7116E+04   -1.8601E+03    0.0000E+00  setid=       0
 node=  6302 local x,y,z forces =   -1.0730E+04   -3.6956E+03    0.0000E+00  setid=       0
 node=  6303 local x,y,z forces =    9.5883E+02   -3.6555E+03    0.0000E+00  setid=       0
 node=  6304 local x,y,z forces =    1.2263E+04   -3.6160E+03    0.0000E+00  setid=       0
 node=  6305 local x,y,z forces =    2.3333E+04   -1.7962E+03    0.0000E+00  setid=       0
 node=  6306 local x,y,z forces =   -2.7106E+04   -9.1682E+02    0.0000E+00  setid=       0
 node=  6307 local x,y,z forces =   -1.0716E+04   -1.8220E+03    0.0000E+00  setid=       0
 node=  6308 local x,y,z forces =    9.6893E+02   -1.8034E+03    0.0000E+00  setid=       0
 node=  6309 local x,y,z forces =    1.2263E+04   -1.7858E+03    0.0000E+00  setid=       0
 node=  6310 local x,y,z forces =    2.3318E+04   -8.8755E+02    0.0000E+00  setid=       0
 node=  6311 local x,y,z forces =   -2.7101E+04    1.7462E-10    0.0000E+00  setid=       0
 node=  6312 local x,y,z forces =   -1.0712E+04    2.6557E-10    0.0000E+00  setid=       0
 node=  6313 local x,y,z forces =    9.7226E+02    3.5288E-10    0.0000E+00  setid=       0
 node=  6314 local x,y,z forces =    1.2263E+04    0.0000E+00    0.0000E+00  setid=       0
 node=  6315 local x,y,z forces =    2.3313E+04   -2.0373E-10    0.0000E+00  setid=       0
 node=  6316 local x,y,z forces =   -2.7106E+04    9.1682E+02    0.0000E+00  setid=       0
 node=  6317 local x,y,z forces =   -1.0716E+04    1.8220E+03    0.0000E+00  setid=       0
 node=  6318 local x,y,z forces =    9.6893E+02    1.8034E+03    0.0000E+00  setid=       0
 node=  6319 local x,y,z forces =    1.2263E+04    1.7858E+03    0.0000E+00  setid=       0
 node=  6320 local x,y,z forces =    2.3318E+04    8.8755E+02    0.0000E+00  setid=       0
 node=  6321 local x,y,z forces =   -2.7116E+04    1.8601E+03    0.0000E+00  setid=       0
 node=  6322 local x,y,z forces =   -1.0730E+04    3.6956E+03    0.0000E+00  setid=       0
 node=  6323 local x,y,z forces =    9.5883E+02    3.6555E+03    0.0000E+00  setid=       0
 node=  6324 local x,y,z forces =    1.2263E+04    3.6160E+03    0.0000E+00  setid=       0
 node=  6325 local x,y,z forces =    2.3333E+04    1.7962E+03    0.0000E+00  setid=       0
 node=  6326 local x,y,z forces =   -2.7140E+04    2.8037E+03    0.0000E+00  setid=       0
 node=  6327 local x,y,z forces =   -1.0753E+04    5.5676E+03    0.0000E+00  setid=       0
 node=  6328 local x,y,z forces =    9.4285E+02    5.5014E+03    0.0000E+00  setid=       0
 node=  6329 local x,y,z forces =    1.2264E+04    5.4366E+03    0.0000E+00  setid=       0
 node=  6330 local x,y,z forces =    2.3365E+04    2.6991E+03    0.0000E+00  setid=       0
 node=  6331 local x,y,z forces =   -2.7170E+04    3.8450E+03    0.0000E+00  setid=       0
 node=  6332 local x,y,z forces =   -1.0788E+04    7.6306E+03    0.0000E+00  setid=       0
 node=  6333 local x,y,z forces =    9.2160E+02    7.5284E+03    0.0000E+00  setid=       0
 node=  6334 local x,y,z forces =    1.2269E+04    7.4228E+03    0.0000E+00  setid=       0
 node=  6335 local x,y,z forces =    2.3413E+04    3.6802E+03    0.0000E+00  setid=       0
 node=  6336 local x,y,z forces =   -2.7228E+04    4.8638E+03    0.0000E+00  setid=       0
 node=  6337 local x,y,z forces =   -1.0837E+04    9.6427E+03    0.0000E+00  setid=       0
 node=  6338 local x,y,z forces =    8.9851E+02    9.4935E+03    0.0000E+00  setid=       0
 node=  6339 local x,y,z forces =    1.2285E+04    9.3413E+03    0.0000E+00  setid=       0
 node=  6340 local x,y,z forces =    2.3502E+04    4.6258E+03    0.0000E+00  setid=       0
 node=  6341 local x,y,z forces =   -2.7295E+04    6.1330E+03    0.0000E+00  setid=       0
 node=  6342 local x,y,z forces =   -1.0903E+04    1.2147E+04    0.0000E+00  setid=       0
 node=  6343 local x,y,z forces =    8.7689E+02    1.1928E+04    0.0000E+00  setid=       0
 node=  6344 local x,y,z forces =    1.2321E+04    1.1691E+04    0.0000E+00  setid=       0
 node=  6345 local x,y,z forces =    2.3626E+04    5.7754E+03    0.0000E+00  setid=       0
 node=  6346 local x,y,z forces =   -2.7442E+04    7.2655E+03    0.0000E+00  setid=       0
 node=  6347 local x,y,z forces =   -1.0996E+04    1.4360E+04    0.0000E+00  setid=       0
 node=  6348 local x,y,z forces =    8.6952E+02    1.4049E+04    0.0000E+00  setid=       0
 node=  6349 local x,y,z forces =    1.2405E+04    1.3728E+04    0.0000E+00  setid=       0
 node=  6350 local x,y,z forces =    2.3868E+04    6.7708E+03    0.0000E+00  setid=       0
 node=  6351 local x,y,z forces =   -2.7598E+04    9.1002E+03    0.0000E+00  setid=       0
 node=  6352 local x,y,z forces =   -1.1128E+04    1.7953E+04    0.0000E+00  setid=       0
 node=  6353 local x,y,z forces =    8.9013E+02    1.7489E+04    0.0000E+00  setid=       0
 node=  6354 local x,y,z forces =    1.2564E+04    1.7002E+04    0.0000E+00  setid=       0
 node=  6355 local x,y,z forces =    2.4189E+04    8.3559E+03    0.0000E+00  setid=       0
 node=  6356 local x,y,z forces =   -2.8066E+04    1.0293E+04    0.0000E+00  setid=       0
 node=  6357 local x,y,z forces =   -1.1291E+04    2.0200E+04    0.0000E+00  setid=       0
 node=  6358 local x,y,z forces =    9.9126E+02    1.9537E+04    0.0000E+00  setid=       0
 node=  6359 local x,y,z forces =    1.2879E+04    1.8952E+04    0.0000E+00  setid=       0
 node=  6360 local x,y,z forces =    2.4913E+04    9.3147E+03    0.0000E+00  setid=       0
 node=  6361 local x,y,z forces =   -2.8445E+04    1.4056E+04    0.0000E+00  setid=       0
 node=  6362 local x,y,z forces =   -1.1430E+04    2.7605E+04    0.0000E+00  setid=       0
 node=  6363 local x,y,z forces =    1.2406E+03    2.6690E+04    0.0000E+00  setid=       0
 node=  6364 local x,y,z forces =    1.3352E+04    2.5667E+04    0.0000E+00  setid=       0
 node=  6365 local x,y,z forces =    2.5742E+04    1.2520E+04    0.0000E+00  setid=       0
 node=  6366 local x,y,z forces =   -3.1590E+04    1.3905E+04    0.0000E+00  setid=       0
 node=  6367 local x,y,z forces =   -1.1295E+04    2.7472E+04    0.0000E+00  setid=       0
 node=  6368 local x,y,z forces =    2.0455E+03    2.6755E+04    0.0000E+00  setid=       0
 node=  6369 local x,y,z forces =    1.4427E+04    2.5436E+04    0.0000E+00  setid=       0
 node=  6370 local x,y,z forces =    2.9502E+04    1.2244E+04    0.0000E+00  setid=       0
 node=  6371 local x,y,z forces =   -1.7678E+04    2.1623E+04    0.0000E+00  setid=       0
 node=  6372 local x,y,z forces =   -5.5750E+03    4.1562E+04    0.0000E+00  setid=       0
 node=  6373 local x,y,z forces =    1.3852E+03    3.9445E+04    0.0000E+00  setid=       0
 node=  6374 local x,y,z forces =    7.7086E+03    3.8684E+04    0.0000E+00  setid=       0
 node=  6375 local x,y,z forces =    1.6782E+04    1.9397E+04    0.0000E+00  setid=       0
             force resultants   =    5.6222E+00    1.8008E-09   -1.2303E+07
 output at time =   6.00000E-04
 node=     1 local x,y,z forces =   -2.5020E+04   -2.8643E+04   -7.9930E+04  setid=       0
 node=     2 local x,y,z forces =   -1.2031E+04   -5.7413E+04   -1.4445E+05  setid=       0
 node=     3 local x,y,z forces =   -2.7305E+03   -5.9138E+04   -1.4356E+05  setid=       0
 node=     4 local x,y,z forces =    7.8810E+03   -6.2900E+04   -1.5782E+05  setid=       0
 node=     5 local x,y,z forces =    2.6657E+04   -3.2860E+04   -9.0287E+04  setid=       0
 node=     6 local x,y,z forces =   -4.3880E+04   -1.7998E+04   -1.2357E+05  setid=       0
 node=     7 local x,y,z forces =   -2.2322E+04   -3.7682E+04   -2.1559E+05  setid=       0
 node=     8 local x,y,z forces =   -4.0354E+03   -4.0104E+04   -2.1033E+05  setid=       0
 node=     9 local x,y,z forces =    1.6237E+04   -4.1624E+04   -2.3721E+05  setid=       0
 node=    10 local x,y,z forces =    4.7733E+04   -2.1198E+04   -1.4113E+05  setid=       0
 node=    11 local x,y,z forces =   -3.8095E+04   -1.8426E+04   -1.0332E+05  setid=       0
 node=    12 local x,y,z forces =   -2.0430E+04   -3.8038E+04   -1.7690E+05  setid=       0
 node=    13 local x,y,z forces =   -2.4431E+03   -4.0025E+04   -1.7116E+05  setid=       0
 node=    14 local x,y,z forces =    1.6720E+04   -4.1852E+04   -1.9793E+05  setid=       0
 node=    15 local x,y,z forces =    4.3158E+04   -2.1432E+04   -1.2152E+05  setid=       0
 node=    16 local x,y,z forces =   -3.6735E+04   -1.3730E+04   -1.0103E+05  setid=       0
 node=    17 local x,y,z forces =   -1.9634E+04   -2.8104E+04   -1.7386E+05  setid=       0
 node=    18 local x,y,z forces =   -1.9366E+03   -2.9296E+04   -1.6912E+05  setid=       0
 node=    19 local x,y,z forces =    1.6598E+04   -3.0606E+04   -1.9705E+05  setid=       0
 node=    20 local x,y,z forces =    4.2705E+04   -1.5675E+04   -1.2144E+05  setid=       0
 node=    21 local x,y,z forces =   -3.5577E+04   -1.2344E+04   -9.7167E+04  setid=       0
 node=    22 local x,y,z forces =   -1.9118E+04   -2.5248E+04   -1.6689E+05  setid=       0
 node=    23 local x,y,z forces =   -1.7247E+03   -2.6228E+04   -1.6254E+05  setid=       0
 node=    24 local x,y,z forces =    1.6397E+04   -2.7173E+04   -1.9117E+05  setid=       0
 node=    25 local x,y,z forces =    4.2076E+04   -1.3837E+04   -1.1874E+05  setid=       0
 node=    26 local x,y,z forces =   -3.5045E+04   -1.0023E+04   -9.6128E+04  setid=       0
 node=    27 local x,y,z forces =   -1.8866E+04   -2.0411E+04   -1.6547E+05  setid=       0
 node=    28 local x,y,z forces =   -1.6752E+03   -2.1067E+04   -1.6166E+05  setid=       0
 node=    29 local x,y,z forces =    1.6210E+04   -2.1711E+04   -1.9083E+05  setid=       0
 node=    30 local x,y,z forces =    4.1892E+04   -1.1029E+04   -1.1872E+05  setid=       0
 node=    31 local x,y,z forces =   -3.4649E+04   -8.5640E+03   -9.4804E+04  setid=       0
 node=    32 local x,y,z forces =   -1.8738E+04   -1.7401E+04   -1.6319E+05  setid=       0
 node=    33 local x,y,z forces =   -1.6835E+03   -1.7888E+04   -1.5969E+05  setid=       0
 node=    34 local x,y,z forces =    1.6072E+04   -1.8348E+04   -1.8919E+05  setid=       0
 node=    35 local x,y,z forces =    4.1703E+04   -9.2970E+03   -1.1799E+05  setid=       0
 node=    36 local x,y,z forces =   -3.4441E+04   -6.8696E+03   -9.4330E+04  setid=       0
 node=    37 local x,y,z forces =   -1.8688E+04   -1.3917E+04   -1.6251E+05  setid=       0
 node=    38 local x,y,z forces =   -1.7221E+03   -1.4237E+04   -1.5927E+05  setid=       0
 node=    39 local x,y,z forces =    1.5968E+04   -1.4554E+04   -1.8904E+05  setid=       0
 node=    40 local x,y,z forces =    4.1625E+04   -7.3635E+03   -1.1797E+05  setid=       0
 node=    41 local x,y,z forces =   -3.4293E+04   -5.4713E+03   -9.3811E+04  setid=       0
 node=    42 local x,y,z forces =   -1.8669E+04   -1.1066E+04   -1.6162E+05  setid=       0
 node=    43 local x,y,z forces =   -1.7650E+03   -1.1290E+04   -1.5853E+05  setid=       0
 node=    44 local x,y,z forces =    1.5889E+04   -1.1510E+04   -1.8846E+05  setid=       0
 node=    45 local x,y,z forces =    4.1553E+04   -5.8158E+03   -1.1772E+05  setid=       0
 node=    46 local x,y,z forces =   -3.4212E+04   -4.0161E+03   -9.3608E+04  setid=       0
 node=    47 local x,y,z forces =   -1.8668E+04   -8.1097E+03   -1.6132E+05  setid=       0
 node=    48 local x,y,z forces =   -1.8053E+03   -8.2502E+03   -1.5834E+05  setid=       0
 node=    49 local x,y,z forces =    1.5830E+04   -8.3935E+03   -1.8839E+05  setid=       0
 node=    50 local x,y,z forces =    4.1516E+04   -4.2374E+03   -1.1772E+05  setid=       0
 node=    51 local x,y,z forces =   -3.4158E+04   -2.6741E+03   -9.3407E+04  setid=       0
 node=    52 local x,y,z forces =   -1.8671E+04   -5.3959E+03   -1.6096E+05  setid=       0
 node=    53 local x,y,z forces =   -1.8359E+03   -5.4822E+03   -1.5805E+05  setid=       0
 node=    54 local x,y,z forces =    1.5790E+04   -5.5697E+03   -1.8817E+05  setid=       0
 node=    55 local x,y,z forces =    4.1486E+04   -2.8099E+03   -1.1762E+05  setid=       0
 node=    56 local x,y,z forces =   -3.4134E+04   -1.3219E+03   -9.3348E+04  setid=       0
 node=    57 local x,y,z forces =   -1.8675E+04   -2.6654E+03   -1.6088E+05  setid=       0
 node=    58 local x,y,z forces =   -1.8554E+03   -2.7045E+03   -1.5800E+05  setid=       0
 node=    59 local x,y,z forces =    1.5767E+04   -2.7453E+03   -1.8817E+05  setid=       0
 node=    60 local x,y,z forces =    4.1473E+04   -1.3845E+03   -1.1763E+05  setid=       0
 node=    61 local x,y,z forces =   -3.4124E+04   -1.4552E-11   -9.3297E+04  setid=       0
 node=    62 local x,y,z forces =   -1.8676E+04    7.2760E-12   -1.6078E+05  setid=       0
 node=    63 local x,y,z forces =   -1.8617E+03    1.4552E-11   -1.5792E+05  setid=       0
 node=    64 local x,y,z forces =    1.5759E+04   -2.9104E-11   -1.8810E+05  setid=       0
 node=    65 local x,y,z forces =    4.1466E+04   -7.2760E-12   -1.1759E+05  setid=       0
 node=    66 local x,y,z forces =   -3.4134E+04    1.3219E+03   -9.3348E+04  setid=       0
 node=    67 local x,y,z forces =   -1.8675E+04    2.6654E+03   -1.6088E+05  setid=       0
 node=    68 local x,y,z forces =   -1.8554E+03    2.7045E+03   -1.5800E+05  setid=       0
 node=    69 local x,y,z forces =    1.5767E+04    2.7453E+03   -1.8817E+05  setid=       0
 node=    70 local x,y,z forces =    4.1473E+04    1.3845E+03   -1.1763E+05  setid=       0
 node=    71 local x,y,z forces =   -3.4158E+04    2.6741E+03   -9.3407E+04  setid=       0
 node=    72 local x,y,z forces =   -1.8671E+04    5.3959E+03   -1.6096E+05  setid=       0
 node=    73 local x,y,z forces =   -1.8359E+03    5.4822E+03   -1.5805E+05  setid=       0
 node=    74 local x,y,z forces =    1.5790E+04    5.5697E+03   -1.8817E+05  setid=       0
 node=    75 local x,y,z forces =    4.1486E+04    2.8099E+03   -1.1762E+05  setid=       0
 node=    76 local x,y,z forces =   -3.4212E+04    4.0161E+03   -9.3608E+04  setid=       0
 node=    77 local x,y,z forces =   -1.8668E+04    8.1097E+03   -1.6132E+05  setid=       0
 node=    78 local x,y,z forces =   -1.8053E+03    8.2502E+03   -1.5834E+05  setid=       0
 node=    79 local x,y,z forces =    1.5830E+04    8.3935E+03   -1.8839E+05  setid=       0
 node=    80 local x,y,z forces =    4.1516E+04    4.2374E+03   -1.1772E+05  setid=       0
 node=    81 local x,y,z forces =   -3.4293E+04    5.4713E+03   -9.3811E+04  setid=       0
 node=    82 local x,y,z forces =   -1.8669E+04    1.1066E+04   -1.6162E+05  setid=       0
 node=    83 local x,y,z forces =   -1.7650E+03    1.1290E+04   -1.5853E+05  setid=       0
 node=    84 local x,y,z forces =    1.5889E+04    1.1510E+04   -1.8846E+05  setid=       0
 node=    85 local x,y,z forces =    4.1553E+04    5.8158E+03   -1.1772E+05  setid=       0
 node=    86 local x,y,z forces =   -3.4441E+04    6.8696E+03   -9.4330E+04  setid=       0
 node=    87 local x,y,z forces =   -1.8688E+04    1.3917E+04   -1.6251E+05  setid=       0
 node=    88 local x,y,z forces =   -1.7221E+03    1.4237E+04   -1.5927E+05  setid=       0
 node=    89 local x,y,z forces =    1.5968E+04    1.4554E+04   -1.8904E+05  setid=       0
 node=    90 local x,y,z forces =    4.1625E+04    7.3635E+03   -1.1797E+05  setid=       0
 node=    91 local x,y,z forces =   -3.4649E+04    8.5640E+03   -9.4804E+04  setid=       0
 node=    92 local x,y,z forces =   -1.8738E+04    1.7401E+04   -1.6319E+05  setid=       0
 node=    93 local x,y,z forces =   -1.6835E+03    1.7888E+04   -1.5969E+05  setid=       0
 node=    94 local x,y,z forces =    1.6072E+04    1.8348E+04   -1.8919E+05  setid=       0
 node=    95 local x,y,z forces =    4.1703E+04    9.2970E+03   -1.1799E+05  setid=       0
 node=    96 local x,y,z forces =   -3.5045E+04    1.0023E+04   -9.6128E+04  setid=       0
 node=    97 local x,y,z forces =   -1.8866E+04    2.0411E+04   -1.6547E+05  setid=       0
[...]
 node=    38 local x,y,z forces =   -4.4049E+05   -5.2825E+04   -4.2889E+05  setid=       0
 node=    39 local x,y,z forces =   -3.0228E+05   -1.4366E+05   -3.7348E+06  setid=       0
 node=    40 local x,y,z forces =    9.5990E+05   -9.5122E+04   -3.2988E+06  setid=       0
 node=    41 local x,y,z forces =    8.0853E+05    2.4523E+04    2.5143E+06  setid=       0
 node=    42 local x,y,z forces =   -3.2002E+05    2.1341E+04    2.8588E+06  setid=       0
 node=    43 local x,y,z forces =   -4.5262E+05   -4.1744E+04   -4.3493E+05  setid=       0
 node=    44 local x,y,z forces =   -3.1123E+05   -1.0513E+05   -3.7922E+06  setid=       0
 node=    45 local x,y,z forces =    9.7239E+05   -6.8672E+04   -3.3499E+06  setid=       0
 node=    46 local x,y,z forces =    8.1517E+05    1.3931E+04    2.5395E+06  setid=       0
 node=    47 local x,y,z forces =   -3.2784E+05    1.0452E+04    2.8894E+06  setid=       0
 node=    48 local x,y,z forces =   -4.6426E+05   -3.0394E+04   -4.4017E+05  setid=       0
 node=    49 local x,y,z forces =   -3.2026E+05   -7.1230E+04   -3.8353E+06  setid=       0
 node=    50 local x,y,z forces =    9.7960E+05   -4.5965E+04   -3.3863E+06  setid=       0
 node=    51 local x,y,z forces =    8.1862E+05    7.7424E+03    2.5545E+06  setid=       0
 node=    52 local x,y,z forces =   -3.3419E+05    4.9735E+03    2.9079E+06  setid=       0
 node=    53 local x,y,z forces =   -4.7313E+05   -2.0111E+04   -4.4323E+05  setid=       0
 node=    54 local x,y,z forces =   -3.2643E+05   -4.5105E+04   -3.8607E+06  setid=       0
 node=    55 local x,y,z forces =    9.8393E+05   -2.8848E+04   -3.4076E+06  setid=       0
 node=    56 local x,y,z forces =    8.2049E+05    3.2550E+03    2.5630E+06  setid=       0
 node=    57 local x,y,z forces =   -3.3826E+05    1.7322E+03    2.9186E+06  setid=       0
 node=    58 local x,y,z forces =   -4.7879E+05   -9.9116E+03   -4.4519E+05  setid=       0
 node=    59 local x,y,z forces =   -3.3060E+05   -2.1413E+04   -3.8764E+06  setid=       0
 node=    60 local x,y,z forces =    9.8590E+05   -1.3642E+04   -3.4202E+06  setid=       0
 node=    61 local x,y,z forces =    8.2105E+05    4.6566E-10    2.5656E+06  setid=       0
 node=    62 local x,y,z forces =   -3.3970E+05    1.1642E-10    2.9217E+06  setid=       0
 node=    63 local x,y,z forces =   -4.8061E+05   -1.8626E-09   -4.4561E+05  setid=       0
 node=    64 local x,y,z forces =   -3.3179E+05    6.9849E-10   -3.8806E+06  setid=       0
 node=    65 local x,y,z forces =    9.8653E+05    6.9849E-10   -3.4235E+06  setid=       0
 node=    66 local x,y,z forces =    8.2049E+05   -3.2550E+03    2.5630E+06  setid=       0
 node=    67 local x,y,z forces =   -3.3826E+05   -1.7322E+03    2.9186E+06  setid=       0
 node=    68 local x,y,z forces =   -4.7879E+05    9.9116E+03   -4.4519E+05  setid=       0
 node=    69 local x,y,z forces =   -3.3060E+05    2.1413E+04   -3.8764E+06  setid=       0
 node=    70 local x,y,z forces =    9.8590E+05    1.3642E+04   -3.4202E+06  setid=       0
 node=    71 local x,y,z forces =    8.1862E+05   -7.7424E+03    2.5545E+06  setid=       0
 node=    72 local x,y,z forces =   -3.3419E+05   -4.9735E+03    2.9079E+06  setid=       0
 node=    73 local x,y,z forces =   -4.7313E+05    2.0111E+04   -4.4323E+05  setid=       0
 node=    74 local x,y,z forces =   -3.2643E+05    4.5105E+04   -3.8607E+06  setid=       0
 node=    75 local x,y,z forces =    9.8393E+05    2.8848E+04   -3.4076E+06  setid=       0
 node=    76 local x,y,z forces =    8.1517E+05   -1.3931E+04    2.5395E+06  setid=       0
 node=    77 local x,y,z forces =   -3.2784E+05   -1.0452E+04    2.8894E+06  setid=       0
 node=    78 local x,y,z forces =   -4.6426E+05    3.0394E+04   -4.4017E+05  setid=       0
 node=    79 local x,y,z forces =   -3.2026E+05    7.1230E+04   -3.8353E+06  setid=       0
 node=    80 local x,y,z forces =    9.7960E+05    4.5965E+04   -3.3863E+06  setid=       0
 node=    81 local x,y,z forces =    8.0853E+05   -2.4523E+04    2.5143E+06  setid=       0
 node=    82 local x,y,z forces =   -3.2002E+05   -2.1341E+04    2.8588E+06  setid=       0
 node=    83 local x,y,z forces =   -4.5262E+05    4.1744E+04   -4.3493E+05  setid=       0
 node=    84 local x,y,z forces =   -3.1123E+05    1.0513E+05   -3.7922E+06  setid=       0
 node=    85 local x,y,z forces =    9.7239E+05    6.8672E+04   -3.3499E+06  setid=       0
 node=    86 local x,y,z forces =    7.9770E+05   -3.8871E+04    2.4776E+06  setid=       0
 node=    87 local x,y,z forces =   -3.1175E+05   -3.7262E+04    2.8155E+06  setid=       0
 node=    88 local x,y,z forces =   -4.4049E+05    5.2825E+04   -4.2889E+05  setid=       0
 node=    89 local x,y,z forces =   -3.0228E+05    1.4366E+05   -3.7348E+06  setid=       0
 node=    90 local x,y,z forces =    9.5990E+05    9.5122E+04   -3.2988E+06  setid=       0
 node=    91 local x,y,z forces =    7.7864E+05   -6.3315E+04    2.4196E+06  setid=       0
 node=    92 local x,y,z forces =   -3.0607E+05   -6.5383E+04    2.7489E+06  setid=       0
 node=    93 local x,y,z forces =   -4.2967E+05    6.6254E+04   -4.1901E+05  setid=       0
 node=    94 local x,y,z forces =   -2.9172E+05    1.9990E+05   -3.6442E+06  setid=       0
 node=    95 local x,y,z forces =    9.4053E+05    1.3434E+05   -3.2176E+06  setid=       0
 node=    96 local x,y,z forces =    7.4956E+05   -9.3438E+04    2.3410E+06  setid=       0
 node=    97 local x,y,z forces =   -3.0667E+05   -1.0154E+05    2.6620E+06  setid=       0
 node=    98 local x,y,z forces =   -4.2801E+05    7.7541E+04   -4.1025E+05  setid=       0
 node=    99 local x,y,z forces =   -2.8910E+05    2.5997E+05   -3.5353E+06  setid=       0
 node=   100 local x,y,z forces =    9.0857E+05    1.7748E+05   -3.1124E+06  setid=       0
 node=   101 local x,y,z forces =    6.9967E+05   -1.4621E+05    2.2160E+06  setid=       0
 node=   102 local x,y,z forces =   -3.2315E+05   -1.6394E+05    2.5267E+06  setid=       0
 node=   103 local x,y,z forces =   -4.4225E+05    9.4729E+04   -3.9371E+05  setid=       0
 node=   104 local x,y,z forces =   -2.9025E+05    3.5999E+05   -3.3590E+06  setid=       0
 node=   105 local x,y,z forces =    8.6047E+05    2.4980E+05   -2.9424E+06  setid=       0
 node=   106 local x,y,z forces =    6.2801E+05   -1.9906E+05    2.0636E+06  setid=       0
 node=   107 local x,y,z forces =   -3.7091E+05   -2.3017E+05    2.3726E+06  setid=       0
 node=   108 local x,y,z forces =   -5.0253E+05    1.0123E+05   -3.9021E+05  setid=       0
 node=   109 local x,y,z forces =   -3.3120E+05    4.4315E+05   -3.1895E+06  setid=       0
 node=   110 local x,y,z forces =    7.8310E+05    3.1257E+05   -2.7513E+06  setid=       0
 node=   111 local x,y,z forces =    5.0352E+05   -3.1080E+05    1.8035E+06  setid=       0
 node=   112 local x,y,z forces =   -4.8192E+05   -3.5742E+05    2.1127E+06  setid=       0
 node=   113 local x,y,z forces =   -6.3956E+05    1.3145E+05   -3.6582E+05  setid=       0
 node=   114 local x,y,z forces =   -4.0256E+05    6.3383E+05   -2.8714E+06  setid=       0
 node=   115 local x,y,z forces =    6.6657E+05    4.5537E+05   -2.4079E+06  setid=       0
 node=   116 local x,y,z forces =    3.4360E+05   -3.2788E+05    1.6706E+06  setid=       0
 node=   117 local x,y,z forces =   -7.9962E+05   -3.8816E+05    2.0821E+06  setid=       0
 node=   118 local x,y,z forces =   -1.0613E+06    9.9865E+04   -4.6563E+05  setid=       0
 node=   119 local x,y,z forces =   -7.0322E+05    6.0208E+05   -3.0388E+06  setid=       0
 node=   120 local x,y,z forces =    5.1022E+05    4.6057E+05   -2.3444E+06  setid=       0
 node=   121 local x,y,z forces =    1.3570E+05   -4.2473E+05    9.6439E+05  setid=       0
 node=   122 local x,y,z forces =   -5.3248E+05   -5.2107E+05    1.2495E+06  setid=       0
 node=   123 local x,y,z forces =   -7.1845E+05    1.5183E+05   -3.3466E+05  setid=       0
 node=   124 local x,y,z forces =   -5.0439E+05    8.0297E+05   -1.9498E+06  setid=       0
 node=   125 local x,y,z forces =    2.1546E+05    5.7258E+05   -1.4273E+06  setid=       0
 node=  3311 local x,y,z forces =    1.1477E+06    0.0000E+00    0.0000E+00  setid=       3
 node=  6251 local x,y,z forces =   -2.1791E+05   -5.4546E+05    0.0000E+00  setid=       0
 node=  6252 local x,y,z forces =    4.6079E+05   -7.6690E+05    0.0000E+00  setid=       0
 node=  6253 local x,y,z forces =    6.5629E+05   -1.5359E+05    0.0000E+00  setid=       0
 node=  6254 local x,y,z forces =    4.8946E+05    4.7710E+05    0.0000E+00  setid=       0
 node=  6255 local x,y,z forces =   -1.2968E+05    3.9370E+05    0.0000E+00  setid=       0
 node=  6256 local x,y,z forces =   -5.0730E+05   -4.3069E+05    0.0000E+00  setid=       0
 node=  6257 local x,y,z forces =    6.3872E+05   -5.6666E+05    0.0000E+00  setid=       0
 node=  6258 local x,y,z forces =    9.6441E+05   -1.0074E+05    0.0000E+00  setid=       0
 node=  6259 local x,y,z forces =    7.3182E+05    3.5351E+05    0.0000E+00  setid=       0
 node=  6260 local x,y,z forces =   -3.2839E+05    3.0188E+05    0.0000E+00  setid=       0
 node=  6261 local x,y,z forces =   -6.4976E+05   -4.2243E+05    0.0000E+00  setid=       0
 node=  6262 local x,y,z forces =    3.6069E+05   -5.8971E+05    0.0000E+00  setid=       0
 node=  6263 local x,y,z forces =    5.7518E+05   -1.2672E+05    0.0000E+00  setid=       0
 node=  6264 local x,y,z forces =    4.3927E+05    3.2429E+05    0.0000E+00  setid=       0
 node=  6265 local x,y,z forces =   -4.7812E+05    2.8389E+05    0.0000E+00  setid=       0
 node=  6266 local x,y,z forces =   -7.5603E+05   -2.8658E+05    0.0000E+00  setid=       0
 node=  6267 local x,y,z forces =    2.9557E+05   -4.0775E+05    0.0000E+00  setid=       0
 node=  6268 local x,y,z forces =    4.5043E+05   -9.5939E+04    0.0000E+00  setid=       0
 node=  6269 local x,y,z forces =    3.3934E+05    2.0669E+05    0.0000E+00  setid=       0
 node=  6270 local x,y,z forces =   -5.9276E+05    1.8001E+05    0.0000E+00  setid=       0
 node=  6271 local x,y,z forces =   -8.2531E+05   -2.2797E+05    0.0000E+00  setid=       0
 node=  6272 local x,y,z forces =    2.5884E+05   -3.2972E+05    0.0000E+00  setid=       0
 node=  6273 local x,y,z forces =    3.9618E+05   -8.8932E+04    0.0000E+00  setid=       0
 node=  6274 local x,y,z forces =    2.9641E+05    1.4594E+05    0.0000E+00  setid=       0
 node=  6275 local x,y,z forces =   -6.5848E+05    1.3134E+05    0.0000E+00  setid=       0
 node=  6276 local x,y,z forces =   -8.6820E+05   -1.6053E+05    0.0000E+00  setid=       0
 node=  6277 local x,y,z forces =    2.5820E+05   -2.3621E+05    0.0000E+00  setid=       0
 node=  6278 local x,y,z forces =    3.8401E+05   -7.2199E+04    0.0000E+00  setid=       0
 node=  6279 local x,y,z forces =    2.8223E+05    8.8966E+04    0.0000E+00  setid=       0
 node=  6280 local x,y,z forces =   -7.0385E+05    8.2957E+04    0.0000E+00  setid=       0
 node=  6281 local x,y,z forces =   -8.9617E+05   -1.2106E+05    0.0000E+00  setid=       0
 node=  6282 local x,y,z forces =    2.6110E+05   -1.8102E+05    0.0000E+00  setid=       0
 node=  6283 local x,y,z forces =    3.8612E+05   -6.1430E+04    0.0000E+00  setid=       0
 node=  6284 local x,y,z forces =    2.8213E+05    5.6320E+04    0.0000E+00  setid=       0
 node=  6285 local x,y,z forces =   -7.3013E+05    5.5601E+04    0.0000E+00  setid=       0
 node=  6286 local x,y,z forces =   -9.1297E+05   -8.5054E+04    0.0000E+00  setid=       0
 node=  6287 local x,y,z forces =    2.7099E+05   -1.2926E+05    0.0000E+00  setid=       0
 node=  6288 local x,y,z forces =    3.9644E+05   -4.8784E+04    0.0000E+00  setid=       0
 node=  6289 local x,y,z forces =    2.8765E+05    3.1129E+04    0.0000E+00  setid=       0
 node=  6290 local x,y,z forces =   -7.4724E+05    3.3576E+04    0.0000E+00  setid=       0
 node=  6291 local x,y,z forces =   -9.2352E+05   -6.1260E+04    0.0000E+00  setid=       0
 node=  6292 local x,y,z forces =    2.7941E+05   -9.4393E+04    0.0000E+00  setid=       0
 node=  6293 local x,y,z forces =    4.0777E+05   -3.8454E+04    0.0000E+00  setid=       0
 node=  6294 local x,y,z forces =    2.9537E+05    1.7130E+04    0.0000E+00  setid=       0
 node=  6295 local x,y,z forces =   -7.5684E+05    2.0799E+04    0.0000E+00  setid=       0
 node=  6296 local x,y,z forces =   -9.2954E+05   -4.0723E+04    0.0000E+00  setid=       0
 node=  6297 local x,y,z forces =    2.8776E+05   -6.3619E+04    0.0000E+00  setid=       0
 node=  6298 local x,y,z forces =    4.1859E+05   -2.7955E+04    0.0000E+00  setid=       0
 node=  6299 local x,y,z forces =    3.0257E+05    7.7858E+03    0.0000E+00  setid=       0
 node=  6300 local x,y,z forces =   -7.6268E+05    1.1534E+04    0.0000E+00  setid=       0
 node=  6301 local x,y,z forces =   -9.3301E+05   -2.5560E+04    0.0000E+00  setid=       0
 node=  6302 local x,y,z forces =    2.9351E+05   -4.0271E+04    0.0000E+00  setid=       0
 node=  6303 local x,y,z forces =    4.2673E+05   -1.8477E+04    0.0000E+00  setid=       0
 node=  6304 local x,y,z forces =    3.0844E+05    3.3599E+03    0.0000E+00  setid=       0
 node=  6305 local x,y,z forces =   -7.6569E+05    6.2633E+03    0.0000E+00  setid=       0
 node=  6306 local x,y,z forces =   -9.3467E+05   -1.2012E+04    0.0000E+00  setid=       0
 node=  6307 local x,y,z forces =    2.9744E+05   -1.9079E+04    0.0000E+00  setid=       0
 node=  6308 local x,y,z forces =    4.3197E+05   -9.0839E+03    0.0000E+00  setid=       0
 node=  6309 local x,y,z forces =    3.1211E+05    9.8115E+02    0.0000E+00  setid=       0
 node=  6310 local x,y,z forces =   -7.6730E+05    2.5725E+03    0.0000E+00  setid=       0
 node=  6311 local x,y,z forces =   -9.3523E+05    2.3283E-10    0.0000E+00  setid=       0
 node=  6312 local x,y,z forces =    2.9853E+05    1.0477E-09    0.0000E+00  setid=       0
 node=  6313 local x,y,z forces =    4.3363E+05    1.7462E-09    0.0000E+00  setid=       0
 node=  6314 local x,y,z forces =    3.1341E+05    1.1642E-09    0.0000E+00  setid=       0
 node=  6315 local x,y,z forces =   -7.6768E+05    2.5611E-09    0.0000E+00  setid=       0
 node=  6316 local x,y,z forces =   -9.3467E+05    1.2012E+04    0.0000E+00  setid=       0
 node=  6317 local x,y,z forces =    2.9744E+05    1.9079E+04    0.0000E+00  setid=       0
 node=  6318 local x,y,z forces =    4.3197E+05    9.0839E+03    0.0000E+00  setid=       0
 node=  6319 local x,y,z forces =    3.1211E+05   -9.8115E+02    0.0000E+00  setid=       0
 node=  6320 local x,y,z forces =   -7.6730E+05   -2.5725E+03    0.0000E+00  setid=       0
 node=  6321 local x,y,z forces =   -9.3301E+05    2.5560E+04    0.0000E+00  setid=       0
 node=  6322 local x,y,z forces =    2.9351E+05    4.0271E+04    0.0000E+00  setid=       0
 node=  6323 local x,y,z forces =    4.2673E+05    1.8477E+04    0.0000E+00  setid=       0
 node=  6324 local x,y,z forces =    3.0844E+05   -3.3599E+03    0.0000E+00  setid=       0
 node=  6325 local x,y,z forces =   -7.6569E+05   -6.2633E+03    0.0000E+00  setid=       0
 node=  6326 local x,y,z forces =   -9.2954E+05    4.0723E+04    0.0000E+00  setid=       0
 node=  6327 local x,y,z forces =    2.8776E+05    6.3619E+04    0.0000E+00  setid=       0
 node=  6328 local x,y,z forces =    4.1859E+05    2.7955E+04    0.0000E+00  setid=       0
 node=  6329 local x,y,z forces =    3.0257E+05   -7.7858E+03    0.0000E+00  setid=       0
 node=  6330 local x,y,z forces =   -7.6268E+05   -1.1534E+04    0.0000E+00  setid=       0
 node=  6331 local x,y,z forces =   -9.2352E+05    6.1260E+04    0.0000E+00  setid=       0
 node=  6332 local x,y,z forces =    2.7941E+05    9.4393E+04    0.0000E+00  setid=       0
 node=  6333 local x,y,z forces =    4.0777E+05    3.8454E+04    0.0000E+00  setid=       0
 node=  6334 local x,y,z forces =    2.9537E+05   -1.7130E+04    0.0000E+00  setid=       0
 node=  6335 local x,y,z forces =   -7.5684E+05   -2.0799E+04    0.0000E+00  setid=       0
 node=  6336 local x,y,z forces =   -9.1297E+05    8.5054E+04    0.0000E+00  setid=       0
 node=  6337 local x,y,z forces =    2.7099E+05    1.2926E+05    0.0000E+00  setid=       0
 node=  6338 local x,y,z forces =    3.9644E+05    4.8784E+04    0.0000E+00  setid=       0
 node=  6339 local x,y,z forces =    2.8765E+05   -3.1129E+04    0.0000E+00  setid=       0
 node=  6340 local x,y,z forces =   -7.4724E+05   -3.3576E+04    0.0000E+00  setid=       0
 node=  6341 local x,y,z forces =   -8.9617E+05    1.2106E+05    0.0000E+00  setid=       0
 node=  6342 local x,y,z forces =    2.6110E+05    1.8102E+05    0.0000E+00  setid=       0
 node=  6343 local x,y,z forces =    3.8612E+05    6.1430E+04    0.0000E+00  setid=       0
 node=  6344 local x,y,z forces =    2.8213E+05   -5.6320E+04    0.0000E+00  setid=       0
 node=  6345 local x,y,z forces =   -7.3013E+05   -5.5601E+04    0.0000E+00  setid=       0
 node=  6346 local x,y,z forces =   -8.6820E+05    1.6053E+05    0.0000E+00  setid=       0
 node=  6347 local x,y,z forces =    2.5820E+05    2.3621E+05    0.0000E+00  setid=       0
 node=  6348 local x,y,z forces =    3.8401E+05    7.2199E+04    0.0000E+00  setid=       0
 node=  6349 local x,y,z forces =    2.8223E+05   -8.8966E+04    0.0000E+00  setid=       0
 node=  6350 local x,y,z forces =   -7.0385E+05   -8.2957E+04    0.0000E+00  setid=       0
 node=  6351 local x,y,z forces =   -8.2531E+05    2.2797E+05    0.0000E+00  setid=       0
 node=  6352 local x,y,z forces =    2.5884E+05    3.2972E+05    0.0000E+00  setid=       0
 node=  6353 local x,y,z forces =    3.9618E+05    8.8932E+04    0.0000E+00  setid=       0
 node=  6354 local x,y,z forces =    2.9641E+05   -1.4594E+05    0.0000E+00  setid=       0
 node=  6355 local x,y,z forces =   -6.5848E+05   -1.3134E+05    0.0000E+00  setid=       0
 node=  6356 local x,y,z forces =   -7.5603E+05    2.8658E+05    0.0000E+00  setid=       0
 node=  6357 local x,y,z forces =    2.9557E+05    4.0775E+05    0.0000E+00  setid=       0
 node=  6358 local x,y,z forces =    4.5043E+05    9.5939E+04    0.0000E+00  setid=       0
 node=  6359 local x,y,z forces =    3.3934E+05   -2.0669E+05    0.0000E+00  setid=       0
 node=  6360 local x,y,z forces =   -5.9276E+05   -1.8001E+05    0.0000E+00  setid=       0
 node=  6361 local x,y,z forces =   -6.4976E+05    4.2243E+05    0.0000E+00  setid=       0
 node=  6362 local x,y,z forces =    3.6069E+05    5.8971E+05    0.0000E+00  setid=       0
 node=  6363 local x,y,z forces =    5.7518E+05    1.2672E+05    0.0000E+00  setid=       0
 node=  6364 local x,y,z forces =    4.3927E+05   -3.2429E+05    0.0000E+00  setid=       0
 node=  6365 local x,y,z forces =   -4.7812E+05   -2.8389E+05    0.0000E+00  setid=       0
 node=  6366 local x,y,z forces =   -5.0730E+05    4.3069E+05    0.0000E+00  setid=       0
 node=  6367 local x,y,z forces =    6.3872E+05    5.6666E+05    0.0000E+00  setid=       0
 node=  6368 local x,y,z forces =    9.6441E+05    1.0074E+05    0.0000E+00  setid=       0
 node=  6369 local x,y,z forces =    7.3182E+05   -3.5351E+05    0.0000E+00  setid=       0
 node=  6370 local x,y,z forces =   -3.2839E+05   -3.0188E+05    0.0000E+00  setid=       0
 node=  6371 local x,y,z forces =   -2.1791E+05    5.4546E+05    0.0000E+00  setid=       0
 node=  6372 local x,y,z forces =    4.6079E+05    7.6690E+05    0.0000E+00  setid=       0
 node=  6373 local x,y,z forces =    6.5629E+05    1.5359E+05    0.0000E+00  setid=       0
 node=  6374 local x,y,z forces =    4.8946E+05   -4.7710E+05    0.0000E+00  setid=       0
 node=  6375 local x,y,z forces =   -1.2968E+05   -3.9370E+05    0.0000E+00  setid=       0
             force resultants   =   -3.2333E+01   -9.8371E-09   -5.1168E+07
