 400x600                                                                 
                         ls-dyna smp.123264 d           date 01/12/2018

{BEGIN LEGEND}
 Entity #        Title
        0     bottom                                                                
        0     top                                                                   
        0     middle                                                                
{END LEGEND}

 single point constraint forces

 output at time =   0.00000E+00
 node=     4 local x,y,z forces =    0.0000E+00    0.0000E+00    0.0000E+00  setid=       0
 node=    11 local x,y,z forces =    0.0000E+00    0.0000E+00    0.0000E+00  setid=       0
 node=    18 local x,y,z forces =    0.0000E+00    0.0000E+00    0.0000E+00  setid=       0
 node=    25 local x,y,z forces =    0.0000E+00    0.0000E+00    0.0000E+00  setid=       0
 node=    32 local x,y,z forces =    0.0000E+00    0.0000E+00    0.0000E+00  setid=       0
 node=    39 local x,y,z forces =    0.0000E+00    0.0000E+00    0.0000E+00  setid=       0
 node=    46 local x,y,z forces =    0.0000E+00    0.0000E+00    0.0000E+00  setid=       0
 node=    53 local x,y,z forces =    0.0000E+00    0.0000E+00    0.0000E+00  setid=       0
 node=    60 local x,y,z forces =    0.0000E+00    0.0000E+00    0.0000E+00  setid=       0
 node=    67 local x,y,z forces =    0.0000E+00    0.0000E+00    0.0000E+00  setid=       0
 node=    74 local x,y,z forces =    0.0000E+00    0.0000E+00    0.0000E+00  setid=       0
 node=    81 local x,y,z forces =    0.0000E+00    0.0000E+00    0.0000E+00  setid=       0
 node=    88 local x,y,z forces =    0.0000E+00    0.0000E+00    0.0000E+00  setid=       0
 node=  4554 local x,y,z forces =    0.0000E+00    0.0000E+00    0.0000E+00  setid=       0
 node=  4561 local x,y,z forces =    0.0000E+00    0.0000E+00    0.0000E+00  setid=       0
 node=  4568 local x,y,z forces =    0.0000E+00    0.0000E+00    0.0000E+00  setid=       0
 node=  4575 local x,y,z forces =    0.0000E+00    0.0000E+00    0.0000E+00  setid=       0
 node=  4582 local x,y,z forces =    0.0000E+00    0.0000E+00    0.0000E+00  setid=       0
 node=  4589 local x,y,z forces =    0.0000E+00    0.0000E+00    0.0000E+00  setid=       0
 node=  4596 local x,y,z forces =    0.0000E+00    0.0000E+00    0.0000E+00  setid=       0
 node=  4603 local x,y,z forces =    0.0000E+00    0.0000E+00    0.0000E+00  setid=       0
 node=  4610 local x,y,z forces =    0.0000E+00    0.0000E+00    0.0000E+00  setid=       0
 node=  4617 local x,y,z forces =    0.0000E+00    0.0000E+00    0.0000E+00  setid=       0
 node=  4624 local x,y,z forces =    0.0000E+00    0.0000E+00    0.0000E+00  setid=       0
 node=  4631 local x,y,z forces =    0.0000E+00    0.0000E+00    0.0000E+00  setid=       0
 node=  4638 local x,y,z forces =    0.0000E+00    0.0000E+00    0.0000E+00  setid=       0
             force resultants   =    0.0000E+00    0.0000E+00    0.0000E+00
 output at time =   5.00000E-04
 node=     4 local x,y,z forces =    1.3373E+00   -6.4506E+04   -2.1839E+05  setid=       0
 node=    11 local x,y,z forces =    2.0416E+00   -4.3882E+04   -4.2180E+05  setid=       0
 node=    18 local x,y,z forces =    1.4377E+00   -2.8145E+04   -4.2157E+05  setid=       0
 node=    25 local x,y,z forces =    7.9253E-01   -1.6934E+04   -4.2296E+05  setid=       0
 node=    32 local x,y,z forces =    2.3735E-01   -1.0776E+04   -4.2288E+05  setid=       0
 node=    39 local x,y,z forces =   -9.9387E-02   -4.7121E+03   -4.2303E+05  setid=       0
 node=    46 local x,y,z forces =   -2.3556E-01    1.3824E-10   -4.2288E+05  setid=       0
 node=    53 local x,y,z forces =   -9.9387E-02    4.7121E+03   -4.2303E+05  setid=       0
 node=    60 local x,y,z forces =    2.3735E-01    1.0776E+04   -4.2288E+05  setid=       0
 node=    67 local x,y,z forces =    7.9253E-01    1.6934E+04   -4.2296E+05  setid=       0
 node=    74 local x,y,z forces =    1.4377E+00    2.8145E+04   -4.2157E+05  setid=       0
 node=    81 local x,y,z forces =    2.0416E+00    4.3882E+04   -4.2180E+05  setid=       0
 node=    88 local x,y,z forces =    1.3373E+00    6.4506E+04   -2.1839E+05  setid=       0
 node=  4554 local x,y,z forces =    1.3373E+00   -6.4506E+04    0.0000E+00  setid=       0
 node=  4561 local x,y,z forces =    2.0416E+00   -4.3882E+04    0.0000E+00  setid=       0
 node=  4568 local x,y,z forces =    1.4377E+00   -2.8145E+04    0.0000E+00  setid=       0
 node=  4575 local x,y,z forces =    7.9252E-01   -1.6934E+04    0.0000E+00  setid=       0
 node=  4582 local x,y,z forces =    2.3734E-01   -1.0776E+04    0.0000E+00  setid=       0
 node=  4589 local x,y,z forces =   -9.9393E-02   -4.7121E+03    0.0000E+00  setid=       0
 node=  4596 local x,y,z forces =   -2.3556E-01   -7.0577E-10    0.0000E+00  setid=       0
 node=  4603 local x,y,z forces =   -9.9393E-02    4.7121E+03    0.0000E+00  setid=       0
 node=  4610 local x,y,z forces =    2.3734E-01    1.0776E+04    0.0000E+00  setid=       0
 node=  4617 local x,y,z forces =    7.9252E-01    1.6934E+04    0.0000E+00  setid=       0
 node=  4624 local x,y,z forces =    1.4377E+00    2.8145E+04    0.0000E+00  setid=       0
 node=  4631 local x,y,z forces =    2.0416E+00    4.3882E+04    0.0000E+00  setid=       0
 node=  4638 local x,y,z forces =    1.3373E+00    6.4506E+04    0.0000E+00  setid=       0
             force resultants   =    2.2517E+01    1.2660E-09   -5.0841E+06
 output at time =   1.00000E-03
 node=     4 local x,y,z forces =    2.7929E+00   -1.2894E+05   -4.3709E+05  setid=       0
 node=    11 local x,y,z forces =    3.7839E+00   -8.7657E+04   -8.4399E+05  setid=       0
 node=    18 local x,y,z forces =    2.2262E+00   -5.6222E+04   -8.4349E+05  setid=       0
 node=    25 local x,y,z forces =    5.6396E-01   -3.3828E+04   -8.4624E+05  setid=       0
 node=    32 local x,y,z forces =   -8.5636E-01   -2.1527E+04   -8.4608E+05  setid=       0
 node=    39 local x,y,z forces =   -1.7033E+00   -9.4125E+03   -8.4636E+05  setid=       0
 node=    46 local x,y,z forces =   -2.0504E+00    4.3656E-11   -8.4607E+05  setid=       0
 node=    53 local x,y,z forces =   -1.7033E+00    9.4125E+03   -8.4636E+05  setid=       0
 node=    60 local x,y,z forces =   -8.5636E-01    2.1527E+04   -8.4608E+05  setid=       0
 node=    67 local x,y,z forces =    5.6396E-01    3.3828E+04   -8.4624E+05  setid=       0
 node=    74 local x,y,z forces =    2.2262E+00    5.6222E+04   -8.4349E+05  setid=       0
 node=    81 local x,y,z forces =    3.7839E+00    8.7657E+04   -8.4399E+05  setid=       0
 node=    88 local x,y,z forces =    2.7929E+00    1.2894E+05   -4.3709E+05  setid=       0
 node=  4554 local x,y,z forces =    2.7929E+00   -1.2894E+05    0.0000E+00  setid=       0
 node=  4561 local x,y,z forces =    3.7838E+00   -8.7657E+04    0.0000E+00  setid=       0
 node=  4568 local x,y,z forces =    2.2262E+00   -5.6222E+04    0.0000E+00  setid=       0
 node=  4575 local x,y,z forces =    5.6394E-01   -3.3828E+04    0.0000E+00  setid=       0
 node=  4582 local x,y,z forces =   -8.5638E-01   -2.1527E+04    0.0000E+00  setid=       0
 node=  4589 local x,y,z forces =   -1.7034E+00   -9.4125E+03    0.0000E+00  setid=       0
 node=  4596 local x,y,z forces =   -2.0504E+00    1.1350E-09    0.0000E+00  setid=       0
 node=  4603 local x,y,z forces =   -1.7034E+00    9.4125E+03    0.0000E+00  setid=       0
 node=  4610 local x,y,z forces =   -8.5638E-01    2.1527E+04    0.0000E+00  setid=       0
 node=  4617 local x,y,z forces =    5.6394E-01    3.3828E+04    0.0000E+00  setid=       0
 node=  4624 local x,y,z forces =    2.2262E+00    5.6222E+04    0.0000E+00  setid=       0
 node=  4631 local x,y,z forces =    3.7838E+00    8.7657E+04    0.0000E+00  setid=       0
 node=  4638 local x,y,z forces =    2.7929E+00    1.2894E+05    0.0000E+00  setid=       0
             force resultants   =    2.3128E+01   -1.0186E-10   -1.0173E+07
 output at time =   1.50000E-03
 node=     4 local x,y,z forces =    4.2857E+00   -1.9331E+05   -6.5612E+05  setid=       0
 node=    11 local x,y,z forces =    4.6247E+00   -1.3133E+05   -1.2666E+06  setid=       0
 node=    18 local x,y,z forces =    1.4519E+00   -8.4231E+04   -1.2657E+06  setid=       0
 node=    25 local x,y,z forces =   -1.9301E+00   -5.0681E+04   -1.2698E+06  setid=       0
 node=    32 local x,y,z forces =   -4.7997E+00   -3.2254E+04   -1.2696E+06  setid=       0
 node=    39 local x,y,z forces =   -6.4838E+00   -1.4101E+04   -1.2700E+06  setid=       0
 node=    46 local x,y,z forces =   -7.1825E+00   -2.0373E-10   -1.2696E+06  setid=       0
 node=    53 local x,y,z forces =   -6.4838E+00    1.4101E+04   -1.2700E+06  setid=       0
 node=    60 local x,y,z forces =   -4.7997E+00    3.2254E+04   -1.2696E+06  setid=       0
 node=    67 local x,y,z forces =   -1.9301E+00    5.0681E+04   -1.2698E+06  setid=       0
 node=    74 local x,y,z forces =    1.4519E+00    8.4231E+04   -1.2657E+06  setid=       0
 node=    81 local x,y,z forces =    4.6247E+00    1.3133E+05   -1.2666E+06  setid=       0
 node=    88 local x,y,z forces =    4.2857E+00    1.9331E+05   -6.5612E+05  setid=       0
 node=  4554 local x,y,z forces =    4.2856E+00   -1.9331E+05    0.0000E+00  setid=       0
 node=  4561 local x,y,z forces =    4.6246E+00   -1.3133E+05    0.0000E+00  setid=       0
 node=  4568 local x,y,z forces =    1.4519E+00   -8.4231E+04    0.0000E+00  setid=       0
 node=  4575 local x,y,z forces =   -1.9301E+00   -5.0681E+04    0.0000E+00  setid=       0
 node=  4582 local x,y,z forces =   -4.7997E+00   -3.2254E+04    0.0000E+00  setid=       0
 node=  4589 local x,y,z forces =   -6.4839E+00   -1.4101E+04    0.0000E+00  setid=       0
 node=  4596 local x,y,z forces =   -7.1825E+00   -5.5297E-10    0.0000E+00  setid=       0
 node=  4603 local x,y,z forces =   -6.4839E+00    1.4101E+04    0.0000E+00  setid=       0
 node=  4610 local x,y,z forces =   -4.7997E+00    3.2254E+04    0.0000E+00  setid=       0
 node=  4617 local x,y,z forces =   -1.9301E+00    5.0681E+04    0.0000E+00  setid=       0
 node=  4624 local x,y,z forces =    1.4519E+00    8.4231E+04    0.0000E+00  setid=       0
 node=  4631 local x,y,z forces =    4.6246E+00    1.3133E+05    0.0000E+00  setid=       0
 node=  4638 local x,y,z forces =    4.2856E+00    1.9331E+05    0.0000E+00  setid=       0
             force resultants   =   -2.5771E+01   -1.0477E-09   -1.5265E+07
 output at time =   2.00000E-03
 node=     4 local x,y,z forces =    5.0028E+00   -2.5760E+05   -8.7547E+05  setid=       0
 node=    11 local x,y,z forces =    1.9970E+00   -1.7489E+05   -1.6896E+06  setid=       0
 node=    18 local x,y,z forces =   -4.1599E+00   -1.1217E+05   -1.6883E+06  setid=       0
 node=    25 local x,y,z forces =   -1.0720E+01   -6.7494E+04   -1.6938E+06  setid=       0
 node=    32 local x,y,z forces =   -1.6245E+01   -4.2955E+04   -1.6934E+06  setid=       0
 node=    39 local x,y,z forces =   -1.9442E+01   -1.8778E+04   -1.6940E+06  setid=       0
 node=    46 local x,y,z forces =   -2.0782E+01    2.9104E-10   -1.6934E+06  setid=       0
 node=    53 local x,y,z forces =   -1.9442E+01    1.8778E+04   -1.6940E+06  setid=       0
 node=    60 local x,y,z forces =   -1.6245E+01    4.2955E+04   -1.6934E+06  setid=       0
 node=    67 local x,y,z forces =   -1.0720E+01    6.7494E+04   -1.6938E+06  setid=       0
 node=    74 local x,y,z forces =   -4.1599E+00    1.1217E+05   -1.6883E+06  setid=       0
 node=    81 local x,y,z forces =    1.9970E+00    1.7489E+05   -1.6896E+06  setid=       0
 node=    88 local x,y,z forces =    5.0028E+00    2.5760E+05   -8.7547E+05  setid=       0
 node=  4554 local x,y,z forces =    5.0027E+00   -2.5760E+05    0.0000E+00  setid=       0
 node=  4561 local x,y,z forces =    1.9968E+00   -1.7489E+05    0.0000E+00  setid=       0
 node=  4568 local x,y,z forces =   -4.1601E+00   -1.1217E+05    0.0000E+00  setid=       0
 node=  4575 local x,y,z forces =   -1.0720E+01   -6.7494E+04    0.0000E+00  setid=       0
 node=  4582 local x,y,z forces =   -1.6245E+01   -4.2955E+04    0.0000E+00  setid=       0
 node=  4589 local x,y,z forces =   -1.9442E+01   -1.8778E+04    0.0000E+00  setid=       0
 node=  4596 local x,y,z forces =   -2.0782E+01    8.1491E-10    0.0000E+00  setid=       0
 node=  4603 local x,y,z forces =   -1.9442E+01    1.8778E+04    0.0000E+00  setid=       0
 node=  4610 local x,y,z forces =   -1.6245E+01    4.2955E+04    0.0000E+00  setid=       0
 node=  4617 local x,y,z forces =   -1.0720E+01    6.7494E+04    0.0000E+00  setid=       0
 node=  4624 local x,y,z forces =   -4.1601E+00    1.1217E+05    0.0000E+00  setid=       0
 node=  4631 local x,y,z forces =    1.9968E+00    1.7489E+05    0.0000E+00  setid=       0
 node=  4638 local x,y,z forces =    5.0027E+00    2.5760E+05    0.0000E+00  setid=       0
             force resultants   =   -2.1583E+02   -8.1491E-10   -2.0362E+07
 output at time =   2.50000E-03
 node=     4 local x,y,z forces =    2.6438E+03   -3.1113E+05   -1.0587E+06  setid=       0
 node=    11 local x,y,z forces =    2.5177E+03   -2.1109E+05   -2.0425E+06  setid=       0
 node=    18 local x,y,z forces =    9.8080E+02   -1.3536E+05   -2.0409E+06  setid=       0
 node=    25 local x,y,z forces =   -6.6506E+02   -8.1443E+04   -2.0474E+06  setid=       0
 node=    32 local x,y,z forces =   -2.0588E+03   -5.1835E+04   -2.0470E+06  setid=       0
 node=    39 local x,y,z forces =   -2.8360E+03   -2.2657E+04   -2.0476E+06  setid=       0
 node=    46 local x,y,z forces =   -3.1749E+03    6.4028E-10   -2.0469E+06  setid=       0
 node=    53 local x,y,z forces =   -2.8360E+03    2.2657E+04   -2.0476E+06  setid=       0
 node=    60 local x,y,z forces =   -2.0588E+03    5.1835E+04   -2.0470E+06  setid=       0
 node=    67 local x,y,z forces =   -6.6506E+02    8.1443E+04   -2.0474E+06  setid=       0
 node=    74 local x,y,z forces =    9.8080E+02    1.3536E+05   -2.0409E+06  setid=       0
 node=    81 local x,y,z forces =    2.5177E+03    2.1109E+05   -2.0425E+06  setid=       0
 node=    88 local x,y,z forces =    2.6438E+03    3.1113E+05   -1.0587E+06  setid=       0
 node=  4554 local x,y,z forces =    2.6437E+03   -3.1113E+05    0.0000E+00  setid=       0
 node=  4561 local x,y,z forces =    2.5175E+03   -2.1109E+05    0.0000E+00  setid=       0
 node=  4568 local x,y,z forces =    9.8064E+02   -1.3536E+05    0.0000E+00  setid=       0
 node=  4575 local x,y,z forces =   -6.6521E+02   -8.1443E+04    0.0000E+00  setid=       0
 node=  4582 local x,y,z forces =   -2.0589E+03   -5.1835E+04    0.0000E+00  setid=       0
 node=  4589 local x,y,z forces =   -2.8362E+03   -2.2657E+04    0.0000E+00  setid=       0
 node=  4596 local x,y,z forces =   -3.1750E+03    5.3842E-09    0.0000E+00  setid=       0
 node=  4603 local x,y,z forces =   -2.8362E+03    2.2657E+04    0.0000E+00  setid=       0
 node=  4610 local x,y,z forces =   -2.0589E+03    5.1835E+04    0.0000E+00  setid=       0
 node=  4617 local x,y,z forces =   -6.6521E+02    8.1443E+04    0.0000E+00  setid=       0
 node=  4624 local x,y,z forces =    9.8064E+02    1.3536E+05    0.0000E+00  setid=       0
 node=  4631 local x,y,z forces =    2.5175E+03    2.1109E+05    0.0000E+00  setid=       0
 node=  4638 local x,y,z forces =    2.6437E+03    3.1113E+05    0.0000E+00  setid=       0
             force resultants   =   -4.0219E+03   -7.3691E-08   -2.4615E+07
 output at time =   3.00000E-03
 node=     4 local x,y,z forces =    7.2543E+03   -3.1062E+05   -1.0584E+06  setid=       0
 node=    11 local x,y,z forces =    7.1355E+03   -2.1076E+05   -2.0418E+06  setid=       0
 node=    18 local x,y,z forces =    3.0611E+03   -1.3518E+05   -2.0400E+06  setid=       0
 node=    25 local x,y,z forces =   -1.3062E+03   -8.1339E+04   -2.0463E+06  setid=       0
 node=    32 local x,y,z forces =   -5.0048E+03   -5.1769E+04   -2.0457E+06  setid=       0
 node=    39 local x,y,z forces =   -7.0670E+03   -2.2629E+04   -2.0463E+06  setid=       0
 node=    46 local x,y,z forces =   -7.9665E+03    1.4843E-09   -2.0455E+06  setid=       0
 node=    53 local x,y,z forces =   -7.0670E+03    2.2629E+04   -2.0463E+06  setid=       0
 node=    60 local x,y,z forces =   -5.0048E+03    5.1769E+04   -2.0457E+06  setid=       0
 node=    67 local x,y,z forces =   -1.3062E+03    8.1339E+04   -2.0463E+06  setid=       0
 node=    74 local x,y,z forces =    3.0611E+03    1.3518E+05   -2.0400E+06  setid=       0
 node=    81 local x,y,z forces =    7.1355E+03    2.1076E+05   -2.0418E+06  setid=       0
 node=    88 local x,y,z forces =    7.2543E+03    3.1062E+05   -1.0584E+06  setid=       0
 node=  4554 local x,y,z forces =    7.2687E+03   -3.1065E+05    0.0000E+00  setid=       0
 node=  4561 local x,y,z forces =    7.1596E+03   -2.1076E+05    0.0000E+00  setid=       0
 node=  4568 local x,y,z forces =    3.0832E+03   -1.3518E+05    0.0000E+00  setid=       0
 node=  4575 local x,y,z forces =   -1.2857E+03   -8.1338E+04    0.0000E+00  setid=       0
 node=  4582 local x,y,z forces =   -4.9859E+03   -5.1769E+04    0.0000E+00  setid=       0
 node=  4589 local x,y,z forces =   -7.0490E+03   -2.2629E+04    0.0000E+00  setid=       0
 node=  4596 local x,y,z forces =   -7.9489E+03    2.6484E-09    0.0000E+00  setid=       0
 node=  4603 local x,y,z forces =   -7.0490E+03    2.2629E+04    0.0000E+00  setid=       0
 node=  4610 local x,y,z forces =   -4.9859E+03    5.1769E+04    0.0000E+00  setid=       0
 node=  4617 local x,y,z forces =   -1.2857E+03    8.1338E+04    0.0000E+00  setid=       0
 node=  4624 local x,y,z forces =    3.0832E+03    1.3518E+05    0.0000E+00  setid=       0
 node=  4631 local x,y,z forces =    7.1596E+03    2.1076E+05    0.0000E+00  setid=       0
 node=  4638 local x,y,z forces =    7.2687E+03    3.1065E+05    0.0000E+00  setid=       0
             force resultants   =    6.1244E+02   -3.6671E-09   -2.4602E+07
 output at time =   3.50000E-03
 node=     4 local x,y,z forces =    9.8524E+03   -3.1041E+05   -1.0591E+06  setid=       0
 node=    11 local x,y,z forces =    9.6772E+03   -2.1062E+05   -2.0429E+06  setid=       0
 node=    18 local x,y,z forces =    4.1377E+03   -1.3510E+05   -2.0410E+06  setid=       0
 node=    25 local x,y,z forces =   -1.8004E+03   -8.1287E+04   -2.0471E+06  setid=       0
 node=    32 local x,y,z forces =   -6.8297E+03   -5.1736E+04   -2.0463E+06  setid=       0
 node=    39 local x,y,z forces =   -9.6338E+03   -2.2615E+04   -2.0468E+06  setid=       0
 node=    46 local x,y,z forces =   -1.0857E+04    9.0222E-10   -2.0460E+06  setid=       0
 node=    53 local x,y,z forces =   -9.6338E+03    2.2615E+04   -2.0468E+06  setid=       0
 node=    60 local x,y,z forces =   -6.8297E+03    5.1736E+04   -2.0463E+06  setid=       0
 node=    67 local x,y,z forces =   -1.8004E+03    8.1287E+04   -2.0471E+06  setid=       0
 node=    74 local x,y,z forces =    4.1377E+03    1.3510E+05   -2.0410E+06  setid=       0
 node=    81 local x,y,z forces =    9.6772E+03    2.1062E+05   -2.0429E+06  setid=       0
 node=    88 local x,y,z forces =    9.8524E+03    3.1041E+05   -1.0591E+06  setid=       0
 node=  4554 local x,y,z forces =    9.8450E+03   -3.1040E+05    0.0000E+00  setid=       0
 node=  4561 local x,y,z forces =    9.6630E+03   -2.1062E+05    0.0000E+00  setid=       0
 node=  4568 local x,y,z forces =    4.1242E+03   -1.3510E+05    0.0000E+00  setid=       0
 node=  4575 local x,y,z forces =   -1.8133E+03   -8.1287E+04    0.0000E+00  setid=       0
 node=  4582 local x,y,z forces =   -6.8422E+03   -5.1736E+04    0.0000E+00  setid=       0
 node=  4589 local x,y,z forces =   -9.6460E+03   -2.2615E+04    0.0000E+00  setid=       0
 node=  4596 local x,y,z forces =   -1.0869E+04   -1.4552E-10    0.0000E+00  setid=       0
 node=  4603 local x,y,z forces =   -9.6460E+03    2.2615E+04    0.0000E+00  setid=       0
 node=  4610 local x,y,z forces =   -6.8422E+03    5.1736E+04    0.0000E+00  setid=       0
 node=  4617 local x,y,z forces =   -1.8133E+03    8.1287E+04    0.0000E+00  setid=       0
 node=  4624 local x,y,z forces =    4.1242E+03    1.3510E+05    0.0000E+00  setid=       0
 node=  4631 local x,y,z forces =    9.6630E+03    2.1062E+05    0.0000E+00  setid=       0
 node=  4638 local x,y,z forces =    9.8450E+03    3.1040E+05    0.0000E+00  setid=       0
             force resultants   =   -2.5803E+02    1.3970E-09   -2.4612E+07
 output at time =   4.00000E-03
 node=     4 local x,y,z forces =    1.1892E+04   -3.1020E+05   -1.0598E+06  setid=       0
 node=    11 local x,y,z forces =    1.1679E+04   -2.1047E+05   -2.0439E+06  setid=       0
 node=    18 local x,y,z forces =    4.9886E+03   -1.3500E+05   -2.0418E+06  setid=       0
 node=    25 local x,y,z forces =   -2.1830E+03   -8.1229E+04   -2.0477E+06  setid=       0
 node=    32 local x,y,z forces =   -8.2565E+03   -5.1700E+04   -2.0468E+06  setid=       0
 node=    39 local x,y,z forces =   -1.1643E+04   -2.2599E+04   -2.0472E+06  setid=       0
 node=    46 local x,y,z forces =   -1.3120E+04    3.7835E-10   -2.0463E+06  setid=       0
 node=    53 local x,y,z forces =   -1.1643E+04    2.2599E+04   -2.0472E+06  setid=       0
 node=    60 local x,y,z forces =   -8.2565E+03    5.1700E+04   -2.0468E+06  setid=       0
 node=    67 local x,y,z forces =   -2.1830E+03    8.1229E+04   -2.0477E+06  setid=       0
 node=    74 local x,y,z forces =    4.9886E+03    1.3500E+05   -2.0418E+06  setid=       0
 node=    81 local x,y,z forces =    1.1679E+04    2.1047E+05   -2.0439E+06  setid=       0
 node=    88 local x,y,z forces =    1.1892E+04    3.1020E+05   -1.0598E+06  setid=       0
 node=  4554 local x,y,z forces =    1.1894E+04   -3.1019E+05    0.0000E+00  setid=       0
 node=  4561 local x,y,z forces =    1.1685E+04   -2.1047E+05    0.0000E+00  setid=       0
 node=  4568 local x,y,z forces =    4.9956E+03   -1.3500E+05    0.0000E+00  setid=       0
 node=  4575 local x,y,z forces =   -2.1752E+03   -8.1230E+04    0.0000E+00  setid=       0
 node=  4582 local x,y,z forces =   -8.2480E+03   -5.1700E+04    0.0000E+00  setid=       0
 node=  4589 local x,y,z forces =   -1.1634E+04   -2.2599E+04    0.0000E+00  setid=       0
 node=  4596 local x,y,z forces =   -1.3111E+04    2.0373E-10    0.0000E+00  setid=       0
 node=  4603 local x,y,z forces =   -1.1634E+04    2.2599E+04    0.0000E+00  setid=       0
 node=  4610 local x,y,z forces =   -8.2480E+03    5.1700E+04    0.0000E+00  setid=       0
 node=  4617 local x,y,z forces =   -2.1752E+03    8.1230E+04    0.0000E+00  setid=       0
 node=  4624 local x,y,z forces =    4.9956E+03    1.3500E+05    0.0000E+00  setid=       0
 node=  4631 local x,y,z forces =    1.1685E+04    2.1047E+05    0.0000E+00  setid=       0
 node=  4638 local x,y,z forces =    1.1894E+04    3.1019E+05    0.0000E+00  setid=       0
             force resultants   =   -2.3942E+02    2.1537E-09   -2.4621E+07
 output at time =   4.50000E-03
 node=     4 local x,y,z forces =    1.3644E+04   -3.1005E+05   -1.0604E+06  setid=       0
 node=    11 local x,y,z forces =    1.3412E+04   -2.1032E+05   -2.0449E+06  setid=       0
 node=    18 local x,y,z forces =    5.7508E+03   -1.3490E+05   -2.0426E+06  setid=       0
 node=    25 local x,y,z forces =   -2.4624E+03   -8.1169E+04   -2.0483E+06  setid=       0
 node=    32 local x,y,z forces =   -9.4194E+03   -5.1661E+04   -2.0473E+06  setid=       0
 node=    39 local x,y,z forces =   -1.3298E+04   -2.2582E+04   -2.0476E+06  setid=       0
 node=    46 local x,y,z forces =   -1.4990E+04    2.3283E-10   -2.0467E+06  setid=       0
 node=    53 local x,y,z forces =   -1.3298E+04    2.2582E+04   -2.0476E+06  setid=       0
 node=    60 local x,y,z forces =   -9.4194E+03    5.1661E+04   -2.0473E+06  setid=       0
 node=    67 local x,y,z forces =   -2.4624E+03    8.1169E+04   -2.0483E+06  setid=       0
 node=    74 local x,y,z forces =    5.7508E+03    1.3490E+05   -2.0426E+06  setid=       0
 node=    81 local x,y,z forces =    1.3412E+04    2.1032E+05   -2.0449E+06  setid=       0
 node=    88 local x,y,z forces =    1.3644E+04    3.1005E+05   -1.0604E+06  setid=       0
 node=  4554 local x,y,z forces =    1.3652E+04   -3.0999E+05    0.0000E+00  setid=       0
 node=  4561 local x,y,z forces =    1.3433E+04   -2.1032E+05    0.0000E+00  setid=       0
 node=  4568 local x,y,z forces =    5.7737E+03   -1.3490E+05    0.0000E+00  setid=       0
 node=  4575 local x,y,z forces =   -2.4383E+03   -8.1170E+04    0.0000E+00  setid=       0
 node=  4582 local x,y,z forces =   -9.3941E+03   -5.1662E+04    0.0000E+00  setid=       0
 node=  4589 local x,y,z forces =   -1.3272E+04   -2.2582E+04    0.0000E+00  setid=       0
 node=  4596 local x,y,z forces =   -1.4964E+04   -1.7462E-10    0.0000E+00  setid=       0
 node=  4603 local x,y,z forces =   -1.3272E+04    2.2582E+04    0.0000E+00  setid=       0
 node=  4610 local x,y,z forces =   -9.3941E+03    5.1662E+04    0.0000E+00  setid=       0
 node=  4617 local x,y,z forces =   -2.4383E+03    8.1170E+04    0.0000E+00  setid=       0
 node=  4624 local x,y,z forces =    5.7737E+03    1.3490E+05    0.0000E+00  setid=       0
 node=  4631 local x,y,z forces =    1.3433E+04    2.1032E+05    0.0000E+00  setid=       0
 node=  4638 local x,y,z forces =    1.3652E+04    3.0999E+05    0.0000E+00  setid=       0
             force resultants   =    8.0944E+02   -1.8626E-09   -2.4629E+07
 output at time =   5.00000E-03
 node=     4 local x,y,z forces =    1.5166E+04   -3.0976E+05   -1.0610E+06  setid=       0
 node=    11 local x,y,z forces =    1.4899E+04   -2.1015E+05   -2.0457E+06  setid=       0
 node=    18 local x,y,z forces =    6.3737E+03   -1.3479E+05   -2.0432E+06  setid=       0
 node=    25 local x,y,z forces =   -2.7655E+03   -8.1104E+04   -2.0487E+06  setid=       0
 node=    32 local x,y,z forces =   -1.0506E+04   -5.1620E+04   -2.0475E+06  setid=       0
 node=    39 local x,y,z forces =   -1.4822E+04   -2.2564E+04   -2.0477E+06  setid=       0
 node=    46 local x,y,z forces =   -1.6704E+04    0.0000E+00   -2.0468E+06  setid=       0
 node=    53 local x,y,z forces =   -1.4822E+04    2.2564E+04   -2.0477E+06  setid=       0
 node=    60 local x,y,z forces =   -1.0506E+04    5.1620E+04   -2.0475E+06  setid=       0
 node=    67 local x,y,z forces =   -2.7655E+03    8.1104E+04   -2.0487E+06  setid=       0
 node=    74 local x,y,z forces =    6.3737E+03    1.3479E+05   -2.0432E+06  setid=       0
 node=    81 local x,y,z forces =    1.4899E+04    2.1015E+05   -2.0457E+06  setid=       0
 node=    88 local x,y,z forces =    1.5166E+04    3.0976E+05   -1.0610E+06  setid=       0
 node=  4554 local x,y,z forces =    1.5168E+04   -3.0973E+05    0.0000E+00  setid=       0
 node=  4561 local x,y,z forces =    1.4907E+04   -2.1015E+05    0.0000E+00  setid=       0
 node=  4568 local x,y,z forces =    6.3823E+03   -1.3480E+05    0.0000E+00  setid=       0
 node=  4575 local x,y,z forces =   -2.7563E+03   -8.1104E+04    0.0000E+00  setid=       0
 node=  4582 local x,y,z forces =   -1.0496E+04   -5.1620E+04    0.0000E+00  setid=       0
 node=  4589 local x,y,z forces =   -1.4811E+04   -2.2564E+04    0.0000E+00  setid=       0
 node=  4596 local x,y,z forces =   -1.6694E+04    1.4552E-10    0.0000E+00  setid=       0
 node=  4603 local x,y,z forces =   -1.4811E+04    2.2564E+04    0.0000E+00  setid=       0
 node=  4610 local x,y,z forces =   -1.0496E+04    5.1620E+04    0.0000E+00  setid=       0
 node=  4617 local x,y,z forces =   -2.7563E+03    8.1104E+04    0.0000E+00  setid=       0
 node=  4624 local x,y,z forces =    6.3823E+03    1.3480E+05    0.0000E+00  setid=       0
 node=  4631 local x,y,z forces =    1.4907E+04    2.1015E+05    0.0000E+00  setid=       0
 node=  4638 local x,y,z forces =    1.5168E+04    3.0973E+05    0.0000E+00  setid=       0
             force resultants   =    7.9314E+01   -6.4028E-10   -2.4634E+07
 output at time =   5.50000E-03
 node=     4 local x,y,z forces =    1.6549E+04   -3.0951E+05   -1.0616E+06  setid=       0
 node=    11 local x,y,z forces =    1.6257E+04   -2.0998E+05   -2.0465E+06  setid=       0
 node=    18 local x,y,z forces =    6.9520E+03   -1.3469E+05   -2.0438E+06  setid=       0
 node=    25 local x,y,z forces =   -3.0230E+03   -8.1039E+04   -2.0492E+06  setid=       0
 node=    32 local x,y,z forces =   -1.1471E+04   -5.1579E+04   -2.0478E+06  setid=       0
 node=    39 local x,y,z forces =   -1.6181E+04   -2.2546E+04   -2.0480E+06  setid=       0
 node=    46 local x,y,z forces =   -1.8236E+04   -3.7835E-10   -2.0470E+06  setid=       0
 node=    53 local x,y,z forces =   -1.6181E+04    2.2546E+04   -2.0480E+06  setid=       0
 node=    60 local x,y,z forces =   -1.1471E+04    5.1579E+04   -2.0478E+06  setid=       0
 node=    67 local x,y,z forces =   -3.0230E+03    8.1039E+04   -2.0492E+06  setid=       0
 node=    74 local x,y,z forces =    6.9520E+03    1.3469E+05   -2.0438E+06  setid=       0
 node=    81 local x,y,z forces =    1.6257E+04    2.0998E+05   -2.0465E+06  setid=       0
 node=    88 local x,y,z forces =    1.6549E+04    3.0951E+05   -1.0616E+06  setid=       0
 node=  4554 local x,y,z forces =    1.6549E+04   -3.0949E+05    0.0000E+00  setid=       0
 node=  4561 local x,y,z forces =    1.6260E+04   -2.0998E+05    0.0000E+00  setid=       0
 node=  4568 local x,y,z forces =    6.9557E+03   -1.3469E+05    0.0000E+00  setid=       0
 node=  4575 local x,y,z forces =   -3.0188E+03   -8.1040E+04    0.0000E+00  setid=       0
 node=  4582 local x,y,z forces =   -1.1466E+04   -5.1580E+04    0.0000E+00  setid=       0
 node=  4589 local x,y,z forces =   -1.6176E+04   -2.2546E+04    0.0000E+00  setid=       0
 node=  4596 local x,y,z forces =   -1.8231E+04   -6.1118E-10    0.0000E+00  setid=       0
 node=  4603 local x,y,z forces =   -1.6176E+04    2.2546E+04    0.0000E+00  setid=       0
 node=  4610 local x,y,z forces =   -1.1466E+04    5.1580E+04    0.0000E+00  setid=       0
 node=  4617 local x,y,z forces =   -3.0188E+03    8.1040E+04    0.0000E+00  setid=       0
 node=  4624 local x,y,z forces =    6.9557E+03    1.3469E+05    0.0000E+00  setid=       0
 node=  4631 local x,y,z forces =    1.6260E+04    2.0998E+05    0.0000E+00  setid=       0
 node=  4638 local x,y,z forces =    1.6549E+04    3.0949E+05    0.0000E+00  setid=       0
             force resultants   =   -9.5365E+01    2.2119E-09   -2.4641E+07
 output at time =   6.00000E-03
 node=     4 local x,y,z forces =    1.7821E+04   -3.0927E+05   -1.0621E+06  setid=       0
 node=    11 local x,y,z forces =    1.7508E+04   -2.0981E+05   -2.0473E+06  setid=       0
 node=    18 local x,y,z forces =    7.4870E+03   -1.3458E+05   -2.0445E+06  setid=       0
 node=    25 local x,y,z forces =   -3.2553E+03   -8.0975E+04   -2.0497E+06  setid=       0
 node=    32 local x,y,z forces =   -1.2353E+04   -5.1538E+04   -2.0482E+06  setid=       0
 node=    39 local x,y,z forces =   -1.7426E+04   -2.2528E+04   -2.0482E+06  setid=       0
 node=    46 local x,y,z forces =   -1.9638E+04   -2.9104E-11   -2.0472E+06  setid=       0
 node=    53 local x,y,z forces =   -1.7426E+04    2.2528E+04   -2.0482E+06  setid=       0
 node=    60 local x,y,z forces =   -1.2353E+04    5.1538E+04   -2.0482E+06  setid=       0
 node=    67 local x,y,z forces =   -3.2553E+03    8.0975E+04   -2.0497E+06  setid=       0
 node=    74 local x,y,z forces =    7.4870E+03    1.3458E+05   -2.0445E+06  setid=       0
 node=    81 local x,y,z forces =    1.7508E+04    2.0981E+05   -2.0473E+06  setid=       0
 node=    88 local x,y,z forces =    1.7821E+04    3.0927E+05   -1.0621E+06  setid=       0
 node=  4554 local x,y,z forces =    1.7821E+04   -3.0926E+05    0.0000E+00  setid=       0
 node=  4561 local x,y,z forces =    1.7509E+04   -2.0982E+05    0.0000E+00  setid=       0
 node=  4568 local x,y,z forces =    7.4886E+03   -1.3458E+05    0.0000E+00  setid=       0
 node=  4575 local x,y,z forces =   -3.2533E+03   -8.0975E+04    0.0000E+00  setid=       0
 node=  4582 local x,y,z forces =   -1.2351E+04   -5.1539E+04    0.0000E+00  setid=       0
 node=  4589 local x,y,z forces =   -1.7423E+04   -2.2528E+04    0.0000E+00  setid=       0
 node=  4596 local x,y,z forces =   -1.9636E+04   -7.8580E-10    0.0000E+00  setid=       0
 node=  4603 local x,y,z forces =   -1.7423E+04    2.2528E+04    0.0000E+00  setid=       0
 node=  4610 local x,y,z forces =   -1.2351E+04    5.1539E+04    0.0000E+00  setid=       0
 node=  4617 local x,y,z forces =   -3.2533E+03    8.0975E+04    0.0000E+00  setid=       0
 node=  4624 local x,y,z forces =    7.4886E+03    1.3458E+05    0.0000E+00  setid=       0
 node=  4631 local x,y,z forces =    1.7509E+04    2.0982E+05    0.0000E+00  setid=       0
 node=  4638 local x,y,z forces =    1.7821E+04    3.0926E+05    0.0000E+00  setid=       0
             force resultants   =   -1.2895E+02    6.4028E-10   -2.4647E+07
 output at time =   6.50000E-03
 node=     4 local x,y,z forces =    1.9004E+04   -3.0903E+05   -1.0627E+06  setid=       0
 node=    11 local x,y,z forces =    1.8671E+04   -2.0965E+05   -2.0481E+06  setid=       0
 node=    18 local x,y,z forces =    7.9851E+03   -1.3448E+05   -2.0451E+06  setid=       0
 node=    25 local x,y,z forces =   -3.4701E+03   -8.0911E+04   -2.0502E+06  setid=       0
 node=    32 local x,y,z forces =   -1.3172E+04   -5.1498E+04   -2.0485E+06  setid=       0
 node=    39 local x,y,z forces =   -1.8581E+04   -2.2510E+04   -2.0484E+06  setid=       0
 node=    46 local x,y,z forces =   -2.0940E+04   -9.3132E-10   -2.0474E+06  setid=       0
 node=    53 local x,y,z forces =   -1.8581E+04    2.2510E+04   -2.0484E+06  setid=       0
 node=    60 local x,y,z forces =   -1.3172E+04    5.1498E+04   -2.0485E+06  setid=       0
 node=    67 local x,y,z forces =   -3.4701E+03    8.0911E+04   -2.0502E+06  setid=       0
 node=    74 local x,y,z forces =    7.9851E+03    1.3448E+05   -2.0451E+06  setid=       0
 node=    81 local x,y,z forces =    1.8671E+04    2.0965E+05   -2.0481E+06  setid=       0
 node=    88 local x,y,z forces =    1.9004E+04    3.0903E+05   -1.0627E+06  setid=       0
 node=  4554 local x,y,z forces =    1.9004E+04   -3.0903E+05    0.0000E+00  setid=       0
 node=  4561 local x,y,z forces =    1.8671E+04   -2.0965E+05    0.0000E+00  setid=       0
 node=  4568 local x,y,z forces =    7.9858E+03   -1.3448E+05    0.0000E+00  setid=       0
 node=  4575 local x,y,z forces =   -3.4692E+03   -8.0911E+04    0.0000E+00  setid=       0
 node=  4582 local x,y,z forces =   -1.3171E+04   -5.1498E+04    0.0000E+00  setid=       0
 node=  4589 local x,y,z forces =   -1.8580E+04   -2.2510E+04    0.0000E+00  setid=       0
 node=  4596 local x,y,z forces =   -2.0939E+04   -2.9104E-11    0.0000E+00  setid=       0
 node=  4603 local x,y,z forces =   -1.8580E+04    2.2510E+04    0.0000E+00  setid=       0
 node=  4610 local x,y,z forces =   -1.3171E+04    5.1498E+04    0.0000E+00  setid=       0
 node=  4617 local x,y,z forces =   -3.4692E+03    8.0911E+04    0.0000E+00  setid=       0
 node=  4624 local x,y,z forces =    7.9858E+03    1.3448E+05    0.0000E+00  setid=       0
 node=  4631 local x,y,z forces =    1.8671E+04    2.0965E+05    0.0000E+00  setid=       0
 node=  4638 local x,y,z forces =    1.9004E+04    3.0903E+05    0.0000E+00  setid=       0
             force resultants   =   -1.2428E+02    2.3283E-09   -2.4653E+07
 output at time =   7.00000E-03
 node=     4 local x,y,z forces =    2.0113E+04   -3.0880E+05   -1.0633E+06  setid=       0
 node=    11 local x,y,z forces =    1.9761E+04   -2.0948E+05   -2.0489E+06  setid=       0
 node=    18 local x,y,z forces =    8.4522E+03   -1.3437E+05   -2.0458E+06  setid=       0
 node=    25 local x,y,z forces =   -3.6713E+03   -8.0846E+04   -2.0506E+06  setid=       0
 node=    32 local x,y,z forces =   -1.3939E+04   -5.1456E+04   -2.0488E+06  setid=       0
 node=    39 local x,y,z forces =   -1.9664E+04   -2.2492E+04   -2.0487E+06  setid=       0
 node=    46 local x,y,z forces =   -2.2161E+04   -2.9104E-11   -2.0476E+06  setid=       0
 node=    53 local x,y,z forces =   -1.9664E+04    2.2492E+04   -2.0487E+06  setid=       0
 node=    60 local x,y,z forces =   -1.3939E+04    5.1456E+04   -2.0488E+06  setid=       0
 node=    67 local x,y,z forces =   -3.6713E+03    8.0846E+04   -2.0506E+06  setid=       0
 node=    74 local x,y,z forces =    8.4522E+03    1.3437E+05   -2.0458E+06  setid=       0
 node=    81 local x,y,z forces =    1.9761E+04    2.0948E+05   -2.0489E+06  setid=       0
 node=    88 local x,y,z forces =    2.0113E+04    3.0880E+05   -1.0633E+06  setid=       0
 node=  4554 local x,y,z forces =    2.0112E+04   -3.0879E+05    0.0000E+00  setid=       0
 node=  4561 local x,y,z forces =    1.9761E+04   -2.0948E+05    0.0000E+00  setid=       0
 node=  4568 local x,y,z forces =    8.4524E+03   -1.3437E+05    0.0000E+00  setid=       0
 node=  4575 local x,y,z forces =   -3.6708E+03   -8.0846E+04    0.0000E+00  setid=       0
 node=  4582 local x,y,z forces =   -1.3938E+04   -5.1457E+04    0.0000E+00  setid=       0
 node=  4589 local x,y,z forces =   -1.9663E+04   -2.2492E+04    0.0000E+00  setid=       0
 node=  4596 local x,y,z forces =   -2.2160E+04    2.0373E-10    0.0000E+00  setid=       0
 node=  4603 local x,y,z forces =   -1.9663E+04    2.2492E+04    0.0000E+00  setid=       0
 node=  4610 local x,y,z forces =   -1.3938E+04    5.1457E+04    0.0000E+00  setid=       0
 node=  4617 local x,y,z forces =   -3.6708E+03    8.0846E+04    0.0000E+00  setid=       0
 node=  4624 local x,y,z forces =    8.4524E+03    1.3437E+05    0.0000E+00  setid=       0
 node=  4631 local x,y,z forces =    1.9761E+04    2.0948E+05    0.0000E+00  setid=       0
 node=  4638 local x,y,z forces =    2.0112E+04    3.0879E+05    0.0000E+00  setid=       0
             force resultants   =   -1.1016E+02   -1.5134E-09   -2.4660E+07
 output at time =   7.50000E-03
 node=     4 local x,y,z forces =    2.1159E+04   -3.0856E+05   -1.0639E+06  setid=       0
 node=    11 local x,y,z forces =    2.0790E+04   -2.0931E+05   -2.0498E+06  setid=       0
 node=    18 local x,y,z forces =    8.8929E+03   -1.3426E+05   -2.0464E+06  setid=       0
 node=    25 local x,y,z forces =   -3.8611E+03   -8.0781E+04   -2.0511E+06  setid=       0
 node=    32 local x,y,z forces =   -1.4663E+04   -5.1415E+04   -2.0491E+06  setid=       0
 node=    39 local x,y,z forces =   -2.0685E+04   -2.2474E+04   -2.0489E+06  setid=       0
 node=    46 local x,y,z forces =   -2.3312E+04   -1.1642E-10   -2.0478E+06  setid=       0
 node=    53 local x,y,z forces =   -2.0685E+04    2.2474E+04   -2.0489E+06  setid=       0
 node=    60 local x,y,z forces =   -1.4663E+04    5.1415E+04   -2.0491E+06  setid=       0
 node=    67 local x,y,z forces =   -3.8611E+03    8.0781E+04   -2.0511E+06  setid=       0
 node=    74 local x,y,z forces =    8.8929E+03    1.3426E+05   -2.0464E+06  setid=       0
 node=    81 local x,y,z forces =    2.0790E+04    2.0931E+05   -2.0498E+06  setid=       0
 node=    88 local x,y,z forces =    2.1159E+04    3.0856E+05   -1.0639E+06  setid=       0
 node=  4554 local x,y,z forces =    2.1158E+04   -3.0856E+05    0.0000E+00  setid=       0
 node=  4561 local x,y,z forces =    2.0789E+04   -2.0931E+05    0.0000E+00  setid=       0
 node=  4568 local x,y,z forces =    8.8930E+03   -1.3426E+05    0.0000E+00  setid=       0
 node=  4575 local x,y,z forces =   -3.8609E+03   -8.0781E+04    0.0000E+00  setid=       0
 node=  4582 local x,y,z forces =   -1.4662E+04   -5.1415E+04    0.0000E+00  setid=       0
 node=  4589 local x,y,z forces =   -2.0685E+04   -2.2474E+04    0.0000E+00  setid=       0
 node=  4596 local x,y,z forces =   -2.3312E+04   -1.8044E-09    0.0000E+00  setid=       0
 node=  4603 local x,y,z forces =   -2.0685E+04    2.2474E+04    0.0000E+00  setid=       0
 node=  4610 local x,y,z forces =   -1.4662E+04    5.1415E+04    0.0000E+00  setid=       0
 node=  4617 local x,y,z forces =   -3.8609E+03    8.0781E+04    0.0000E+00  setid=       0
 node=  4624 local x,y,z forces =    8.8930E+03    1.3426E+05    0.0000E+00  setid=       0
 node=  4631 local x,y,z forces =    2.0789E+04    2.0931E+05    0.0000E+00  setid=       0
 node=  4638 local x,y,z forces =    2.1158E+04    3.0856E+05    0.0000E+00  setid=       0
             force resultants   =   -9.5130E+01    3.0268E-09   -2.4666E+07
 output at time =   8.00000E-03
 node=     4 local x,y,z forces =    2.2151E+04   -3.0832E+05   -1.0644E+06  setid=       0
 node=    11 local x,y,z forces =    2.1765E+04   -2.0914E+05   -2.0506E+06  setid=       0
 node=    18 local x,y,z forces =    9.3111E+03   -1.3415E+05   -2.0471E+06  setid=       0
 node=    25 local x,y,z forces =   -4.0412E+03   -8.0716E+04   -2.0515E+06  setid=       0
 node=    32 local x,y,z forces =   -1.5350E+04   -5.1374E+04   -2.0494E+06  setid=       0
 node=    39 local x,y,z forces =   -2.1655E+04   -2.2456E+04   -2.0491E+06  setid=       0
 node=    46 local x,y,z forces =   -2.4405E+04   -5.2387E-10   -2.0480E+06  setid=       0
 node=    53 local x,y,z forces =   -2.1655E+04    2.2456E+04   -2.0491E+06  setid=       0
 node=    60 local x,y,z forces =   -1.5350E+04    5.1374E+04   -2.0494E+06  setid=       0
 node=    67 local x,y,z forces =   -4.0412E+03    8.0716E+04   -2.0515E+06  setid=       0
 node=    74 local x,y,z forces =    9.3111E+03    1.3415E+05   -2.0471E+06  setid=       0
 node=    81 local x,y,z forces =    2.1765E+04    2.0914E+05   -2.0506E+06  setid=       0
 node=    88 local x,y,z forces =    2.2151E+04    3.0832E+05   -1.0644E+06  setid=       0
 node=  4554 local x,y,z forces =    2.2151E+04   -3.0832E+05    0.0000E+00  setid=       0
 node=  4561 local x,y,z forces =    2.1765E+04   -2.0914E+05    0.0000E+00  setid=       0
 node=  4568 local x,y,z forces =    9.3110E+03   -1.3415E+05    0.0000E+00  setid=       0
 node=  4575 local x,y,z forces =   -4.0412E+03   -8.0716E+04    0.0000E+00  setid=       0
 node=  4582 local x,y,z forces =   -1.5350E+04   -5.1374E+04    0.0000E+00  setid=       0
 node=  4589 local x,y,z forces =   -2.1655E+04   -2.2456E+04    0.0000E+00  setid=       0
 node=  4596 local x,y,z forces =   -2.4405E+04   -2.0373E-10    0.0000E+00  setid=       0
 node=  4603 local x,y,z forces =   -2.1655E+04    2.2456E+04    0.0000E+00  setid=       0
 node=  4610 local x,y,z forces =   -1.5350E+04    5.1374E+04    0.0000E+00  setid=       0
 node=  4617 local x,y,z forces =   -4.0412E+03    8.0716E+04    0.0000E+00  setid=       0
 node=  4624 local x,y,z forces =    9.3110E+03    1.3415E+05    0.0000E+00  setid=       0
 node=  4631 local x,y,z forces =    2.1765E+04    2.0914E+05    0.0000E+00  setid=       0
 node=  4638 local x,y,z forces =    2.2151E+04    3.0832E+05    0.0000E+00  setid=       0
             force resultants   =   -8.1643E+01    9.3132E-10   -2.4672E+07
 output at time =   8.50000E-03
 node=     4 local x,y,z forces =    2.3100E+04   -3.0809E+05   -1.0650E+06  setid=       0
 node=    11 local x,y,z forces =    2.2694E+04   -2.0897E+05   -2.0514E+06  setid=       0
 node=    18 local x,y,z forces =    9.7122E+03   -1.3405E+05   -2.0477E+06  setid=       0
 node=    25 local x,y,z forces =   -4.2072E+03   -8.0650E+04   -2.0520E+06  setid=       0
 node=    32 local x,y,z forces =   -1.5997E+04   -5.1332E+04   -2.0497E+06  setid=       0
 node=    39 local x,y,z forces =   -2.2571E+04   -2.2438E+04   -2.0493E+06  setid=       0
 node=    46 local x,y,z forces =   -2.5438E+04   -5.8208E-10   -2.0482E+06  setid=       0
 node=    53 local x,y,z forces =   -2.2571E+04    2.2438E+04   -2.0493E+06  setid=       0
 node=    60 local x,y,z forces =   -1.5997E+04    5.1332E+04   -2.0497E+06  setid=       0
 node=    67 local x,y,z forces =   -4.2072E+03    8.0650E+04   -2.0520E+06  setid=       0
 node=    74 local x,y,z forces =    9.7122E+03    1.3405E+05   -2.0477E+06  setid=       0
 node=    81 local x,y,z forces =    2.2694E+04    2.0897E+05   -2.0514E+06  setid=       0
 node=    88 local x,y,z forces =    2.3100E+04    3.0809E+05   -1.0650E+06  setid=       0
 node=  4554 local x,y,z forces =    2.3132E+04   -3.0805E+05    0.0000E+00  setid=       0
 node=  4561 local x,y,z forces =    2.2764E+04   -2.0898E+05    0.0000E+00  setid=       0
 node=  4568 local x,y,z forces =    9.7829E+03   -1.3405E+05    0.0000E+00  setid=       0
 node=  4575 local x,y,z forces =   -4.1354E+03   -8.0653E+04    0.0000E+00  setid=       0
 node=  4582 local x,y,z forces =   -1.5924E+04   -5.1334E+04    0.0000E+00  setid=       0
 node=  4589 local x,y,z forces =   -2.2497E+04   -2.2438E+04    0.0000E+00  setid=       0
 node=  4596 local x,y,z forces =   -2.5364E+04   -8.7311E-10    0.0000E+00  setid=       0
 node=  4603 local x,y,z forces =   -2.2497E+04    2.2438E+04    0.0000E+00  setid=       0
 node=  4610 local x,y,z forces =   -1.5924E+04    5.1334E+04    0.0000E+00  setid=       0
 node=  4617 local x,y,z forces =   -4.1354E+03    8.0653E+04    0.0000E+00  setid=       0
 node=  4624 local x,y,z forces =    9.7829E+03    1.3405E+05    0.0000E+00  setid=       0
 node=  4631 local x,y,z forces =    2.2764E+04    2.0898E+05    0.0000E+00  setid=       0
 node=  4638 local x,y,z forces =    2.3132E+04    3.0805E+05    0.0000E+00  setid=       0
             force resultants   =    9.0457E+02    8.1491E-10   -2.4678E+07
 output at time =   9.00000E-03
 node=     4 local x,y,z forces =    2.4004E+04   -3.0785E+05   -1.0656E+06  setid=       0
 node=    11 local x,y,z forces =    2.3585E+04   -2.0880E+05   -2.0522E+06  setid=       0
 node=    18 local x,y,z forces =    1.0093E+04   -1.3394E+05   -2.0483E+06  setid=       0
 node=    25 local x,y,z forces =   -4.3720E+03   -8.0585E+04   -2.0525E+06  setid=       0
 node=    32 local x,y,z forces =   -1.6624E+04   -5.1291E+04   -2.0500E+06  setid=       0
 node=    39 local x,y,z forces =   -2.3455E+04   -2.2420E+04   -2.0495E+06  setid=       0
 node=    46 local x,y,z forces =   -2.6435E+04   -5.2387E-10   -2.0483E+06  setid=       0
 node=    53 local x,y,z forces =   -2.3455E+04    2.2420E+04   -2.0495E+06  setid=       0
 node=    60 local x,y,z forces =   -1.6624E+04    5.1291E+04   -2.0500E+06  setid=       0
 node=    67 local x,y,z forces =   -4.3720E+03    8.0585E+04   -2.0525E+06  setid=       0
 node=    74 local x,y,z forces =    1.0093E+04    1.3394E+05   -2.0483E+06  setid=       0
 node=    81 local x,y,z forces =    2.3585E+04    2.0880E+05   -2.0522E+06  setid=       0
 node=    88 local x,y,z forces =    2.4004E+04    3.0785E+05   -1.0656E+06  setid=       0
 node=  4554 local x,y,z forces =    2.4031E+04   -3.0782E+05    0.0000E+00  setid=       0
 node=  4561 local x,y,z forces =    2.3643E+04   -2.0881E+05    0.0000E+00  setid=       0
 node=  4568 local x,y,z forces =    1.0153E+04   -1.3394E+05    0.0000E+00  setid=       0
 node=  4575 local x,y,z forces =   -4.3118E+03   -8.0587E+04    0.0000E+00  setid=       0
 node=  4582 local x,y,z forces =   -1.6563E+04   -5.1292E+04    0.0000E+00  setid=       0
 node=  4589 local x,y,z forces =   -2.3393E+04   -2.2420E+04    0.0000E+00  setid=       0
 node=  4596 local x,y,z forces =   -2.6373E+04   -7.8580E-10    0.0000E+00  setid=       0
 node=  4603 local x,y,z forces =   -2.3393E+04    2.2420E+04    0.0000E+00  setid=       0
 node=  4610 local x,y,z forces =   -1.6563E+04    5.1292E+04    0.0000E+00  setid=       0
 node=  4617 local x,y,z forces =   -4.3118E+03    8.0587E+04    0.0000E+00  setid=       0
 node=  4624 local x,y,z forces =    1.0153E+04    1.3394E+05    0.0000E+00  setid=       0
 node=  4631 local x,y,z forces =    2.3643E+04    2.0881E+05    0.0000E+00  setid=       0
 node=  4638 local x,y,z forces =    2.4031E+04    3.0782E+05    0.0000E+00  setid=       0
             force resultants   =    7.6873E+02    1.6298E-09   -2.4685E+07
 output at time =   9.50000E-03
 node=     4 local x,y,z forces =    2.4872E+04   -3.0761E+05   -1.0661E+06  setid=       0
 node=    11 local x,y,z forces =    2.4438E+04   -2.0864E+05   -2.0530E+06  setid=       0
 node=    18 local x,y,z forces =    1.0459E+04   -1.3383E+05   -2.0490E+06  setid=       0
 node=    25 local x,y,z forces =   -4.5303E+03   -8.0520E+04   -2.0529E+06  setid=       0
 node=    32 local x,y,z forces =   -1.7226E+04   -5.1250E+04   -2.0503E+06  setid=       0
 node=    39 local x,y,z forces =   -2.4304E+04   -2.2402E+04   -2.0498E+06  setid=       0
 node=    46 local x,y,z forces =   -2.7392E+04   -1.1642E-10   -2.0485E+06  setid=       0
 node=    53 local x,y,z forces =   -2.4304E+04    2.2402E+04   -2.0498E+06  setid=       0
 node=    60 local x,y,z forces =   -1.7226E+04    5.1250E+04   -2.0503E+06  setid=       0
 node=    67 local x,y,z forces =   -4.5303E+03    8.0520E+04   -2.0529E+06  setid=       0
 node=    74 local x,y,z forces =    1.0459E+04    1.3383E+05   -2.0490E+06  setid=       0
 node=    81 local x,y,z forces =    2.4438E+04    2.0864E+05   -2.0530E+06  setid=       0
 node=    88 local x,y,z forces =    2.4872E+04    3.0761E+05   -1.0661E+06  setid=       0
 node=  4554 local x,y,z forces =    2.4894E+04   -3.0758E+05    0.0000E+00  setid=       0
 node=  4561 local x,y,z forces =    2.4487E+04   -2.0864E+05    0.0000E+00  setid=       0
 node=  4568 local x,y,z forces =    1.0509E+04   -1.3383E+05    0.0000E+00  setid=       0
 node=  4575 local x,y,z forces =   -4.4793E+03   -8.0522E+04    0.0000E+00  setid=       0
 node=  4582 local x,y,z forces =   -1.7174E+04   -5.1251E+04    0.0000E+00  setid=       0
 node=  4589 local x,y,z forces =   -2.4252E+04   -2.2402E+04    0.0000E+00  setid=       0
 node=  4596 local x,y,z forces =   -2.7339E+04    3.2014E-10    0.0000E+00  setid=       0
 node=  4603 local x,y,z forces =   -2.4252E+04    2.2402E+04    0.0000E+00  setid=       0
 node=  4610 local x,y,z forces =   -1.7174E+04    5.1251E+04    0.0000E+00  setid=       0
 node=  4617 local x,y,z forces =   -4.4793E+03    8.0522E+04    0.0000E+00  setid=       0
 node=  4624 local x,y,z forces =    1.0509E+04    1.3383E+05    0.0000E+00  setid=       0
 node=  4631 local x,y,z forces =    2.4487E+04    2.0864E+05    0.0000E+00  setid=       0
 node=  4638 local x,y,z forces =    2.4894E+04    3.0758E+05    0.0000E+00  setid=       0
             force resultants   =    6.5506E+02    1.9209E-09   -2.4691E+07
 output at time =   1.00000E-02
 node=     4 local x,y,z forces =    2.5706E+04   -3.0736E+05   -1.0667E+06  setid=       0
 node=    11 local x,y,z forces =    2.5259E+04   -2.0847E+05   -2.0538E+06  setid=       0
 node=    18 local x,y,z forces =    1.0810E+04   -1.3372E+05   -2.0496E+06  setid=       0
 node=    25 local x,y,z forces =   -4.6828E+03   -8.0455E+04   -2.0534E+06  setid=       0
 node=    32 local x,y,z forces =   -1.7805E+04   -5.1208E+04   -2.0506E+06  setid=       0
 node=    39 local x,y,z forces =   -2.5121E+04   -2.2383E+04   -2.0500E+06  setid=       0
 node=    46 local x,y,z forces =   -2.8313E+04    1.7462E-10   -2.0487E+06  setid=       0
 node=    53 local x,y,z forces =   -2.5121E+04    2.2383E+04   -2.0500E+06  setid=       0
 node=    60 local x,y,z forces =   -1.7805E+04    5.1208E+04   -2.0506E+06  setid=       0
 node=    67 local x,y,z forces =   -4.6828E+03    8.0455E+04   -2.0534E+06  setid=       0
 node=    74 local x,y,z forces =    1.0810E+04    1.3372E+05   -2.0496E+06  setid=       0
 node=    81 local x,y,z forces =    2.5259E+04    2.0847E+05   -2.0538E+06  setid=       0
 node=    88 local x,y,z forces =    2.5706E+04    3.0736E+05   -1.0667E+06  setid=       0
 node=  4554 local x,y,z forces =    2.5726E+04   -3.0734E+05    0.0000E+00  setid=       0
 node=  4561 local x,y,z forces =    2.5301E+04   -2.0847E+05    0.0000E+00  setid=       0
 node=  4568 local x,y,z forces =    1.0853E+04   -1.3372E+05    0.0000E+00  setid=       0
 node=  4575 local x,y,z forces =   -4.6391E+03   -8.0456E+04    0.0000E+00  setid=       0
 node=  4582 local x,y,z forces =   -1.7761E+04   -5.1209E+04    0.0000E+00  setid=       0
 node=  4589 local x,y,z forces =   -2.5076E+04   -2.2384E+04    0.0000E+00  setid=       0
 node=  4596 local x,y,z forces =   -2.8268E+04   -1.0477E-09    0.0000E+00  setid=       0
 node=  4603 local x,y,z forces =   -2.5076E+04    2.2384E+04    0.0000E+00  setid=       0
 node=  4610 local x,y,z forces =   -1.7761E+04    5.1209E+04    0.0000E+00  setid=       0
 node=  4617 local x,y,z forces =   -4.6391E+03    8.0456E+04    0.0000E+00  setid=       0
 node=  4624 local x,y,z forces =    1.0853E+04    1.3372E+05    0.0000E+00  setid=       0
 node=  4631 local x,y,z forces =    2.5301E+04    2.0847E+05    0.0000E+00  setid=       0
 node=  4638 local x,y,z forces =    2.5726E+04    3.0734E+05    0.0000E+00  setid=       0
             force resultants   =    5.6063E+02    9.3132E-10   -2.4697E+07
 output at time =   1.05000E-02
 node=     4 local x,y,z forces =    2.6511E+04   -3.0712E+05   -1.0673E+06  setid=       0
 node=    11 local x,y,z forces =    2.6051E+04   -2.0830E+05   -2.0546E+06  setid=       0
 node=    18 local x,y,z forces =    1.1149E+04   -1.3361E+05   -2.0502E+06  setid=       0
 node=    25 local x,y,z forces =   -4.8298E+03   -8.0389E+04   -2.0538E+06  setid=       0
 node=    32 local x,y,z forces =   -1.8363E+04   -5.1167E+04   -2.0509E+06  setid=       0
 node=    39 local x,y,z forces =   -2.5909E+04   -2.2365E+04   -2.0502E+06  setid=       0
 node=    46 local x,y,z forces =   -2.9200E+04    2.0373E-10   -2.0489E+06  setid=       0
 node=    53 local x,y,z forces =   -2.5909E+04    2.2365E+04   -2.0502E+06  setid=       0
 node=    60 local x,y,z forces =   -1.8363E+04    5.1167E+04   -2.0509E+06  setid=       0
 node=    67 local x,y,z forces =   -4.8298E+03    8.0389E+04   -2.0538E+06  setid=       0
 node=    74 local x,y,z forces =    1.1149E+04    1.3361E+05   -2.0502E+06  setid=       0
 node=    81 local x,y,z forces =    2.6051E+04    2.0830E+05   -2.0546E+06  setid=       0
 node=    88 local x,y,z forces =    2.6511E+04    3.0712E+05   -1.0673E+06  setid=       0
 node=  4554 local x,y,z forces =    2.6528E+04   -3.0710E+05    0.0000E+00  setid=       0
 node=  4561 local x,y,z forces =    2.6087E+04   -2.0830E+05    0.0000E+00  setid=       0
 node=  4568 local x,y,z forces =    1.1186E+04   -1.3362E+05    0.0000E+00  setid=       0
 node=  4575 local x,y,z forces =   -4.7921E+03   -8.0391E+04    0.0000E+00  setid=       0
 node=  4582 local x,y,z forces =   -1.8325E+04   -5.1167E+04    0.0000E+00  setid=       0
 node=  4589 local x,y,z forces =   -2.5870E+04   -2.2366E+04    0.0000E+00  setid=       0
 node=  4596 local x,y,z forces =   -2.9162E+04    4.0745E-10    0.0000E+00  setid=       0
 node=  4603 local x,y,z forces =   -2.5870E+04    2.2366E+04    0.0000E+00  setid=       0
 node=  4610 local x,y,z forces =   -1.8325E+04    5.1167E+04    0.0000E+00  setid=       0
 node=  4617 local x,y,z forces =   -4.7921E+03    8.0391E+04    0.0000E+00  setid=       0
 node=  4624 local x,y,z forces =    1.1186E+04    1.3362E+05    0.0000E+00  setid=       0
 node=  4631 local x,y,z forces =    2.6087E+04    2.0830E+05    0.0000E+00  setid=       0
 node=  4638 local x,y,z forces =    2.6528E+04    3.0710E+05    0.0000E+00  setid=       0
             force resultants   =    4.8187E+02    0.0000E+00   -2.4703E+07
 output at time =   1.10000E-02
 node=     4 local x,y,z forces =    2.7288E+04   -3.0688E+05   -1.0678E+06  setid=       0
 node=    11 local x,y,z forces =    2.6815E+04   -2.0813E+05   -2.0554E+06  setid=       0
 node=    18 local x,y,z forces =    1.1476E+04   -1.3351E+05   -2.0509E+06  setid=       0
 node=    25 local x,y,z forces =   -4.9718E+03   -8.0324E+04   -2.0543E+06  setid=       0
 node=    32 local x,y,z forces =   -1.8903E+04   -5.1125E+04   -2.0512E+06  setid=       0
 node=    39 local x,y,z forces =   -2.6670E+04   -2.2347E+04   -2.0504E+06  setid=       0
 node=    46 local x,y,z forces =   -3.0058E+04    3.2014E-10   -2.0491E+06  setid=       0
 node=    53 local x,y,z forces =   -2.6670E+04    2.2347E+04   -2.0504E+06  setid=       0
 node=    60 local x,y,z forces =   -1.8903E+04    5.1125E+04   -2.0512E+06  setid=       0
 node=    67 local x,y,z forces =   -4.9718E+03    8.0324E+04   -2.0543E+06  setid=       0
 node=    74 local x,y,z forces =    1.1476E+04    1.3351E+05   -2.0509E+06  setid=       0
 node=    81 local x,y,z forces =    2.6815E+04    2.0813E+05   -2.0554E+06  setid=       0
 node=    88 local x,y,z forces =    2.7288E+04    3.0688E+05   -1.0678E+06  setid=       0
 node=  4554 local x,y,z forces =    2.7303E+04   -3.0686E+05    0.0000E+00  setid=       0
 node=  4561 local x,y,z forces =    2.6847E+04   -2.0813E+05    0.0000E+00  setid=       0
 node=  4568 local x,y,z forces =    1.1508E+04   -1.3351E+05    0.0000E+00  setid=       0
 node=  4575 local x,y,z forces =   -4.9390E+03   -8.0325E+04    0.0000E+00  setid=       0
 node=  4582 local x,y,z forces =   -1.8869E+04   -5.1126E+04    0.0000E+00  setid=       0
 node=  4589 local x,y,z forces =   -2.6636E+04   -2.2347E+04    0.0000E+00  setid=       0
 node=  4596 local x,y,z forces =   -3.0024E+04   -8.1491E-10    0.0000E+00  setid=       0
 node=  4603 local x,y,z forces =   -2.6636E+04    2.2347E+04    0.0000E+00  setid=       0
 node=  4610 local x,y,z forces =   -1.8869E+04    5.1126E+04    0.0000E+00  setid=       0
 node=  4617 local x,y,z forces =   -4.9390E+03    8.0325E+04    0.0000E+00  setid=       0
 node=  4624 local x,y,z forces =    1.1508E+04    1.3351E+05    0.0000E+00  setid=       0
 node=  4631 local x,y,z forces =    2.6847E+04    2.0813E+05    0.0000E+00  setid=       0
 node=  4638 local x,y,z forces =    2.7303E+04    3.0686E+05    0.0000E+00  setid=       0
             force resultants   =    4.1588E+02   -3.3178E-09   -2.4709E+07
 output at time =   1.15000E-02
 node=     4 local x,y,z forces =    2.8041E+04   -3.0663E+05   -1.0684E+06  setid=       0
 node=    11 local x,y,z forces =    2.7556E+04   -2.0796E+05   -2.0562E+06  setid=       0
 node=    18 local x,y,z forces =    1.1793E+04   -1.3340E+05   -2.0515E+06  setid=       0
 node=    25 local x,y,z forces =   -5.1092E+03   -8.0258E+04   -2.0547E+06  setid=       0
 node=    32 local x,y,z forces =   -1.9425E+04   -5.1083E+04   -2.0515E+06  setid=       0
 node=    39 local x,y,z forces =   -2.7407E+04   -2.2329E+04   -2.0506E+06  setid=       0
 node=    46 local x,y,z forces =   -3.0888E+04   -3.7835E-10   -2.0492E+06  setid=       0
 node=    53 local x,y,z forces =   -2.7407E+04    2.2329E+04   -2.0506E+06  setid=       0
 node=    60 local x,y,z forces =   -1.9425E+04    5.1083E+04   -2.0515E+06  setid=       0
 node=    67 local x,y,z forces =   -5.1092E+03    8.0258E+04   -2.0547E+06  setid=       0
 node=    74 local x,y,z forces =    1.1793E+04    1.3340E+05   -2.0515E+06  setid=       0
 node=    81 local x,y,z forces =    2.7556E+04    2.0796E+05   -2.0562E+06  setid=       0
 node=    88 local x,y,z forces =    2.8041E+04    3.0663E+05   -1.0684E+06  setid=       0
 node=  4554 local x,y,z forces =    2.8054E+04   -3.0662E+05    0.0000E+00  setid=       0
 node=  4561 local x,y,z forces =    2.7584E+04   -2.0796E+05    0.0000E+00  setid=       0
 node=  4568 local x,y,z forces =    1.1821E+04   -1.3340E+05    0.0000E+00  setid=       0
 node=  4575 local x,y,z forces =   -5.0805E+03   -8.0259E+04    0.0000E+00  setid=       0
 node=  4582 local x,y,z forces =   -1.9396E+04   -5.1084E+04    0.0000E+00  setid=       0
 node=  4589 local x,y,z forces =   -2.7377E+04   -2.2329E+04    0.0000E+00  setid=       0
 node=  4596 local x,y,z forces =   -3.0859E+04   -1.3679E-09    0.0000E+00  setid=       0
 node=  4603 local x,y,z forces =   -2.7377E+04    2.2329E+04    0.0000E+00  setid=       0
 node=  4610 local x,y,z forces =   -1.9396E+04    5.1084E+04    0.0000E+00  setid=       0
 node=  4617 local x,y,z forces =   -5.0805E+03    8.0259E+04    0.0000E+00  setid=       0
 node=  4624 local x,y,z forces =    1.1821E+04    1.3340E+05    0.0000E+00  setid=       0
 node=  4631 local x,y,z forces =    2.7584E+04    2.0796E+05    0.0000E+00  setid=       0
 node=  4638 local x,y,z forces =    2.8054E+04    3.0662E+05    0.0000E+00  setid=       0
             force resultants   =    3.6029E+02    5.8208E-10   -2.4715E+07
 output at time =   1.20000E-02
 node=     4 local x,y,z forces =    2.8771E+04   -3.0639E+05   -1.0689E+06  setid=       0
 node=    11 local x,y,z forces =    2.8273E+04   -2.0779E+05   -2.0570E+06  setid=       0
 node=    18 local x,y,z forces =    1.2100E+04   -1.3329E+05   -2.0521E+06  setid=       0
 node=    25 local x,y,z forces =   -5.2424E+03   -8.0193E+04   -2.0552E+06  setid=       0
 node=    32 local x,y,z forces =   -1.9931E+04   -5.1042E+04   -2.0518E+06  setid=       0
 node=    39 local x,y,z forces =   -2.8121E+04   -2.2311E+04   -2.0508E+06  setid=       0
 node=    46 local x,y,z forces =   -3.1693E+04   -2.9104E-11   -2.0494E+06  setid=       0
 node=    53 local x,y,z forces =   -2.8121E+04    2.2311E+04   -2.0508E+06  setid=       0
 node=    60 local x,y,z forces =   -1.9931E+04    5.1042E+04   -2.0518E+06  setid=       0
 node=    67 local x,y,z forces =   -5.2424E+03    8.0193E+04   -2.0552E+06  setid=       0
 node=    74 local x,y,z forces =    1.2100E+04    1.3329E+05   -2.0521E+06  setid=       0
 node=    81 local x,y,z forces =    2.8273E+04    2.0779E+05   -2.0570E+06  setid=       0
 node=    88 local x,y,z forces =    2.8771E+04    3.0639E+05   -1.0689E+06  setid=       0
 node=  4554 local x,y,z forces =    2.8782E+04   -3.0638E+05    0.0000E+00  setid=       0
 node=  4561 local x,y,z forces =    2.8298E+04   -2.0779E+05    0.0000E+00  setid=       0
 node=  4568 local x,y,z forces =    1.2125E+04   -1.3329E+05    0.0000E+00  setid=       0
 node=  4575 local x,y,z forces =   -5.2171E+03   -8.0194E+04    0.0000E+00  setid=       0
 node=  4582 local x,y,z forces =   -1.9906E+04   -5.1042E+04    0.0000E+00  setid=       0
 node=  4589 local x,y,z forces =   -2.8095E+04   -2.2311E+04    0.0000E+00  setid=       0
 node=  4596 local x,y,z forces =   -3.1667E+04   -2.1537E-09    0.0000E+00  setid=       0
 node=  4603 local x,y,z forces =   -2.8095E+04    2.2311E+04    0.0000E+00  setid=       0
 node=  4610 local x,y,z forces =   -1.9906E+04    5.1042E+04    0.0000E+00  setid=       0
 node=  4617 local x,y,z forces =   -5.2171E+03    8.0194E+04    0.0000E+00  setid=       0
 node=  4624 local x,y,z forces =    1.2125E+04    1.3329E+05    0.0000E+00  setid=       0
 node=  4631 local x,y,z forces =    2.8298E+04    2.0779E+05    0.0000E+00  setid=       0
 node=  4638 local x,y,z forces =    2.8782E+04    3.0638E+05    0.0000E+00  setid=       0
             force resultants   =    3.1324E+02    3.2014E-09   -2.4721E+07
 output at time =   1.25000E-02
 node=     4 local x,y,z forces =    2.9479E+04   -3.0615E+05   -1.0695E+06  setid=       0
 node=    11 local x,y,z forces =    2.8970E+04   -2.0762E+05   -2.0578E+06  setid=       0
 node=    18 local x,y,z forces =    1.2399E+04   -1.3318E+05   -2.0527E+06  setid=       0
 node=    25 local x,y,z forces =   -5.3718E+03   -8.0127E+04   -2.0556E+06  setid=       0
 node=    32 local x,y,z forces =   -2.0423E+04   -5.1000E+04   -2.0521E+06  setid=       0
 node=    39 local x,y,z forces =   -2.8815E+04   -2.2292E+04   -2.0510E+06  setid=       0
 node=    46 local x,y,z forces =   -3.2475E+04    5.5297E-10   -2.0496E+06  setid=       0
 node=    53 local x,y,z forces =   -2.8815E+04    2.2292E+04   -2.0510E+06  setid=       0
 node=    60 local x,y,z forces =   -2.0423E+04    5.1000E+04   -2.0521E+06  setid=       0
 node=    67 local x,y,z forces =   -5.3718E+03    8.0127E+04   -2.0556E+06  setid=       0
 node=    74 local x,y,z forces =    1.2399E+04    1.3318E+05   -2.0527E+06  setid=       0
 node=    81 local x,y,z forces =    2.8970E+04    2.0762E+05   -2.0578E+06  setid=       0
 node=    88 local x,y,z forces =    2.9479E+04    3.0615E+05   -1.0695E+06  setid=       0
 node=  4554 local x,y,z forces =    2.9489E+04   -3.0614E+05    0.0000E+00  setid=       0
 node=  4561 local x,y,z forces =    2.8992E+04   -2.0762E+05    0.0000E+00  setid=       0
 node=  4568 local x,y,z forces =    1.2421E+04   -1.3318E+05    0.0000E+00  setid=       0
 node=  4575 local x,y,z forces =   -5.3493E+03   -8.0128E+04    0.0000E+00  setid=       0
 node=  4582 local x,y,z forces =   -2.0400E+04   -5.1001E+04    0.0000E+00  setid=       0
 node=  4589 local x,y,z forces =   -2.8792E+04   -2.2293E+04    0.0000E+00  setid=       0
 node=  4596 local x,y,z forces =   -3.2452E+04   -9.8953E-10    0.0000E+00  setid=       0
 node=  4603 local x,y,z forces =   -2.8792E+04    2.2293E+04    0.0000E+00  setid=       0
 node=  4610 local x,y,z forces =   -2.0400E+04    5.1001E+04    0.0000E+00  setid=       0
 node=  4617 local x,y,z forces =   -5.3493E+03    8.0128E+04    0.0000E+00  setid=       0
 node=  4624 local x,y,z forces =    1.2421E+04    1.3318E+05    0.0000E+00  setid=       0
 node=  4631 local x,y,z forces =    2.8992E+04    2.0762E+05    0.0000E+00  setid=       0
 node=  4638 local x,y,z forces =    2.9489E+04    3.0614E+05    0.0000E+00  setid=       0
             force resultants   =    2.7320E+02   -5.8208E-11   -2.4727E+07
 output at time =   1.30000E-02
 node=     4 local x,y,z forces =    3.0168E+04   -3.0590E+05   -1.0701E+06  setid=       0
 node=    11 local x,y,z forces =    2.9648E+04   -2.0745E+05   -2.0586E+06  setid=       0
 node=    18 local x,y,z forces =    1.2689E+04   -1.3307E+05   -2.0534E+06  setid=       0
 node=    25 local x,y,z forces =   -5.4974E+03   -8.0061E+04   -2.0561E+06  setid=       0
 node=    32 local x,y,z forces =   -2.0901E+04   -5.0958E+04   -2.0524E+06  setid=       0
 node=    39 local x,y,z forces =   -2.9489E+04   -2.2274E+04   -2.0513E+06  setid=       0
 node=    46 local x,y,z forces =   -3.3235E+04   -3.7835E-10   -2.0498E+06  setid=       0
 node=    53 local x,y,z forces =   -2.9489E+04    2.2274E+04   -2.0513E+06  setid=       0
 node=    60 local x,y,z forces =   -2.0901E+04    5.0958E+04   -2.0524E+06  setid=       0
 node=    67 local x,y,z forces =   -5.4974E+03    8.0061E+04   -2.0561E+06  setid=       0
 node=    74 local x,y,z forces =    1.2689E+04    1.3307E+05   -2.0534E+06  setid=       0
 node=    81 local x,y,z forces =    2.9648E+04    2.0745E+05   -2.0586E+06  setid=       0
 node=    88 local x,y,z forces =    3.0168E+04    3.0590E+05   -1.0701E+06  setid=       0
 node=  4554 local x,y,z forces =    3.0177E+04   -3.0590E+05    0.0000E+00  setid=       0
 node=  4561 local x,y,z forces =    2.9667E+04   -2.0745E+05    0.0000E+00  setid=       0
 node=  4568 local x,y,z forces =    1.2708E+04   -1.3307E+05    0.0000E+00  setid=       0
 node=  4575 local x,y,z forces =   -5.4774E+03   -8.0062E+04    0.0000E+00  setid=       0
 node=  4582 local x,y,z forces =   -2.0880E+04   -5.0959E+04    0.0000E+00  setid=       0
 node=  4589 local x,y,z forces =   -2.9468E+04   -2.2274E+04    0.0000E+00  setid=       0
 node=  4596 local x,y,z forces =   -3.3214E+04   -1.5134E-09    0.0000E+00  setid=       0
 node=  4603 local x,y,z forces =   -2.9468E+04    2.2274E+04    0.0000E+00  setid=       0
 node=  4610 local x,y,z forces =   -2.0880E+04    5.0959E+04    0.0000E+00  setid=       0
 node=  4617 local x,y,z forces =   -5.4774E+03    8.0062E+04    0.0000E+00  setid=       0
 node=  4624 local x,y,z forces =    1.2708E+04    1.3307E+05    0.0000E+00  setid=       0
 node=  4631 local x,y,z forces =    2.9667E+04    2.0745E+05    0.0000E+00  setid=       0
 node=  4638 local x,y,z forces =    3.0177E+04    3.0590E+05    0.0000E+00  setid=       0
             force resultants   =    2.3897E+02    5.6461E-09   -2.4733E+07
 output at time =   1.35000E-02
 node=     4 local x,y,z forces =    3.0838E+04   -3.0566E+05   -1.0706E+06  setid=       0
 node=    11 local x,y,z forces =    3.0307E+04   -2.0728E+05   -2.0594E+06  setid=       0
 node=    18 local x,y,z forces =    1.2971E+04   -1.3296E+05   -2.0540E+06  setid=       0
 node=    25 local x,y,z forces =   -5.6197E+03   -7.9996E+04   -2.0565E+06  setid=       0
 node=    32 local x,y,z forces =   -2.1366E+04   -5.0917E+04   -2.0527E+06  setid=       0
 node=    39 local x,y,z forces =   -3.0145E+04   -2.2256E+04   -2.0515E+06  setid=       0
 node=    46 local x,y,z forces =   -3.3974E+04   -5.2387E-10   -2.0499E+06  setid=       0
 node=    53 local x,y,z forces =   -3.0145E+04    2.2256E+04   -2.0515E+06  setid=       0
 node=    60 local x,y,z forces =   -2.1366E+04    5.0917E+04   -2.0527E+06  setid=       0
 node=    67 local x,y,z forces =   -5.6197E+03    7.9996E+04   -2.0565E+06  setid=       0
 node=    74 local x,y,z forces =    1.2971E+04    1.3296E+05   -2.0540E+06  setid=       0
 node=    81 local x,y,z forces =    3.0307E+04    2.0728E+05   -2.0594E+06  setid=       0
 node=    88 local x,y,z forces =    3.0838E+04    3.0566E+05   -1.0706E+06  setid=       0
 node=  4554 local x,y,z forces =    3.0847E+04   -3.0565E+05    0.0000E+00  setid=       0
 node=  4561 local x,y,z forces =    3.0325E+04   -2.0728E+05    0.0000E+00  setid=       0
 node=  4568 local x,y,z forces =    1.2989E+04   -1.3297E+05    0.0000E+00  setid=       0
 node=  4575 local x,y,z forces =   -5.6018E+03   -7.9996E+04    0.0000E+00  setid=       0
 node=  4582 local x,y,z forces =   -2.1347E+04   -5.0917E+04    0.0000E+00  setid=       0
 node=  4589 local x,y,z forces =   -3.0127E+04   -2.2256E+04    0.0000E+00  setid=       0
 node=  4596 local x,y,z forces =   -3.3956E+04   -2.2992E-09    0.0000E+00  setid=       0
 node=  4603 local x,y,z forces =   -3.0127E+04    2.2256E+04    0.0000E+00  setid=       0
 node=  4610 local x,y,z forces =   -2.1347E+04    5.0917E+04    0.0000E+00  setid=       0
 node=  4617 local x,y,z forces =   -5.6018E+03    7.9996E+04    0.0000E+00  setid=       0
 node=  4624 local x,y,z forces =    1.2989E+04    1.3297E+05    0.0000E+00  setid=       0
 node=  4631 local x,y,z forces =    3.0325E+04    2.0728E+05    0.0000E+00  setid=       0
 node=  4638 local x,y,z forces =    3.0847E+04    3.0565E+05    0.0000E+00  setid=       0
             force resultants   =    2.0957E+02    5.8208E-10   -2.4739E+07
 output at time =   1.40000E-02
 node=     4 local x,y,z forces =    3.1492E+04   -3.0542E+05   -1.0712E+06  setid=       0
 node=    11 local x,y,z forces =    3.0950E+04   -2.0710E+05   -2.0602E+06  setid=       0
 node=    18 local x,y,z forces =    1.3246E+04   -1.3286E+05   -2.0546E+06  setid=       0
 node=    25 local x,y,z forces =   -5.7388E+03   -7.9930E+04   -2.0570E+06  setid=       0
 node=    32 local x,y,z forces =   -2.1819E+04   -5.0875E+04   -2.0530E+06  setid=       0
 node=    39 local x,y,z forces =   -3.0784E+04   -2.2238E+04   -2.0517E+06  setid=       0
 node=    46 local x,y,z forces =   -3.4695E+04   -6.4028E-10   -2.0501E+06  setid=       0
 node=    53 local x,y,z forces =   -3.0784E+04    2.2238E+04   -2.0517E+06  setid=       0
 node=    60 local x,y,z forces =   -2.1819E+04    5.0875E+04   -2.0530E+06  setid=       0
 node=    67 local x,y,z forces =   -5.7388E+03    7.9930E+04   -2.0570E+06  setid=       0
 node=    74 local x,y,z forces =    1.3246E+04    1.3286E+05   -2.0546E+06  setid=       0
 node=    81 local x,y,z forces =    3.0950E+04    2.0710E+05   -2.0602E+06  setid=       0
 node=    88 local x,y,z forces =    3.1492E+04    3.0542E+05   -1.0712E+06  setid=       0
 node=  4554 local x,y,z forces =    3.1499E+04   -3.0541E+05    0.0000E+00  setid=       0
 node=  4561 local x,y,z forces =    3.0965E+04   -2.0711E+05    0.0000E+00  setid=       0
 node=  4568 local x,y,z forces =    1.3262E+04   -1.3286E+05    0.0000E+00  setid=       0
 node=  4575 local x,y,z forces =   -5.7227E+03   -7.9930E+04    0.0000E+00  setid=       0
 node=  4582 local x,y,z forces =   -2.1802E+04   -5.0875E+04    0.0000E+00  setid=       0
 node=  4589 local x,y,z forces =   -3.0768E+04   -2.2238E+04    0.0000E+00  setid=       0
 node=  4596 local x,y,z forces =   -3.4678E+04   -1.8626E-09    0.0000E+00  setid=       0
 node=  4603 local x,y,z forces =   -3.0768E+04    2.2238E+04    0.0000E+00  setid=       0
 node=  4610 local x,y,z forces =   -2.1802E+04    5.0875E+04    0.0000E+00  setid=       0
 node=  4617 local x,y,z forces =   -5.7227E+03    7.9930E+04    0.0000E+00  setid=       0
 node=  4624 local x,y,z forces =    1.3262E+04    1.3286E+05    0.0000E+00  setid=       0
 node=  4631 local x,y,z forces =    3.0965E+04    2.0711E+05    0.0000E+00  setid=       0
 node=  4638 local x,y,z forces =    3.1499E+04    3.0541E+05    0.0000E+00  setid=       0
             force resultants   =    1.8420E+02   -4.7148E-09   -2.4745E+07
 output at time =   1.45000E-02
 node=     4 local x,y,z forces =    3.2129E+04   -3.0517E+05   -1.0717E+06  setid=       0
 node=    11 local x,y,z forces =    3.1576E+04   -2.0693E+05   -2.0610E+06  setid=       0
 node=    18 local x,y,z forces =    1.3515E+04   -1.3275E+05   -2.0553E+06  setid=       0
 node=    25 local x,y,z forces =   -5.8550E+03   -7.9864E+04   -2.0574E+06  setid=       0
 node=    32 local x,y,z forces =   -2.2261E+04   -5.0833E+04   -2.0533E+06  setid=       0
 node=    39 local x,y,z forces =   -3.1408E+04   -2.2219E+04   -2.0519E+06  setid=       0
 node=    46 local x,y,z forces =   -3.5398E+04   -2.6193E-10   -2.0503E+06  setid=       0
 node=    53 local x,y,z forces =   -3.1408E+04    2.2219E+04   -2.0519E+06  setid=       0
 node=    60 local x,y,z forces =   -2.2261E+04    5.0833E+04   -2.0533E+06  setid=       0
 node=    67 local x,y,z forces =   -5.8550E+03    7.9864E+04   -2.0574E+06  setid=       0
 node=    74 local x,y,z forces =    1.3515E+04    1.3275E+05   -2.0553E+06  setid=       0
 node=    81 local x,y,z forces =    3.1576E+04    2.0693E+05   -2.0610E+06  setid=       0
 node=    88 local x,y,z forces =    3.2129E+04    3.0517E+05   -1.0717E+06  setid=       0
 node=  4554 local x,y,z forces =    3.2135E+04   -3.0517E+05    0.0000E+00  setid=       0
 node=  4561 local x,y,z forces =    3.1590E+04   -2.0693E+05    0.0000E+00  setid=       0
 node=  4568 local x,y,z forces =    1.3529E+04   -1.3275E+05    0.0000E+00  setid=       0
 node=  4575 local x,y,z forces =   -5.8404E+03   -7.9865E+04    0.0000E+00  setid=       0
 node=  4582 local x,y,z forces =   -2.2246E+04   -5.0834E+04    0.0000E+00  setid=       0
 node=  4589 local x,y,z forces =   -3.1393E+04   -2.2220E+04    0.0000E+00  setid=       0
 node=  4596 local x,y,z forces =   -3.5383E+04    2.3865E-09    0.0000E+00  setid=       0
 node=  4603 local x,y,z forces =   -3.1393E+04    2.2220E+04    0.0000E+00  setid=       0
 node=  4610 local x,y,z forces =   -2.2246E+04    5.0834E+04    0.0000E+00  setid=       0
 node=  4617 local x,y,z forces =   -5.8404E+03    7.9865E+04    0.0000E+00  setid=       0
 node=  4624 local x,y,z forces =    1.3529E+04    1.3275E+05    0.0000E+00  setid=       0
 node=  4631 local x,y,z forces =    3.1590E+04    2.0693E+05    0.0000E+00  setid=       0
 node=  4638 local x,y,z forces =    3.2135E+04    3.0517E+05    0.0000E+00  setid=       0
             force resultants   =    1.6222E+02   -2.7940E-09   -2.4751E+07
 output at time =   1.50000E-02
 node=     4 local x,y,z forces =    3.2750E+04   -3.0493E+05   -1.0723E+06  setid=       0
 node=    11 local x,y,z forces =    3.2188E+04   -2.0676E+05   -2.0618E+06  setid=       0
 node=    18 local x,y,z forces =    1.3777E+04   -1.3264E+05   -2.0559E+06  setid=       0
 node=    25 local x,y,z forces =   -5.9683E+03   -7.9798E+04   -2.0579E+06  setid=       0
 node=    32 local x,y,z forces =   -2.2692E+04   -5.0791E+04   -2.0536E+06  setid=       0
 node=    39 local x,y,z forces =   -3.2016E+04   -2.2201E+04   -2.0521E+06  setid=       0
 node=    46 local x,y,z forces =   -3.6084E+04   -1.4552E-10   -2.0505E+06  setid=       0
 node=    53 local x,y,z forces =   -3.2016E+04    2.2201E+04   -2.0521E+06  setid=       0
 node=    60 local x,y,z forces =   -2.2692E+04    5.0791E+04   -2.0536E+06  setid=       0
 node=    67 local x,y,z forces =   -5.9683E+03    7.9798E+04   -2.0579E+06  setid=       0
 node=    74 local x,y,z forces =    1.3777E+04    1.3264E+05   -2.0559E+06  setid=       0
 node=    81 local x,y,z forces =    3.2188E+04    2.0676E+05   -2.0618E+06  setid=       0
 node=    88 local x,y,z forces =    3.2750E+04    3.0493E+05   -1.0723E+06  setid=       0
 node=  4554 local x,y,z forces =    3.2756E+04   -3.0493E+05    0.0000E+00  setid=       0
 node=  4561 local x,y,z forces =    3.2201E+04   -2.0676E+05    0.0000E+00  setid=       0
 node=  4568 local x,y,z forces =    1.3790E+04   -1.3264E+05    0.0000E+00  setid=       0
 node=  4575 local x,y,z forces =   -5.9551E+03   -7.9799E+04    0.0000E+00  setid=       0
 node=  4582 local x,y,z forces =   -2.2679E+04   -5.0792E+04    0.0000E+00  setid=       0
 node=  4589 local x,y,z forces =   -3.2003E+04   -2.2201E+04    0.0000E+00  setid=       0
 node=  4596 local x,y,z forces =   -3.6070E+04   -2.0955E-09    0.0000E+00  setid=       0
 node=  4603 local x,y,z forces =   -3.2003E+04    2.2201E+04    0.0000E+00  setid=       0
 node=  4610 local x,y,z forces =   -2.2679E+04    5.0792E+04    0.0000E+00  setid=       0
 node=  4617 local x,y,z forces =   -5.9551E+03    7.9799E+04    0.0000E+00  setid=       0
 node=  4624 local x,y,z forces =    1.3790E+04    1.3264E+05    0.0000E+00  setid=       0
 node=  4631 local x,y,z forces =    3.2201E+04    2.0676E+05    0.0000E+00  setid=       0
 node=  4638 local x,y,z forces =    3.2756E+04    3.0493E+05    0.0000E+00  setid=       0
             force resultants   =    1.4310E+02    4.2492E-09   -2.4757E+07
 output at time =   1.55000E-02
 node=     4 local x,y,z forces =    3.3358E+04   -3.0469E+05   -1.0729E+06  setid=       0
 node=    11 local x,y,z forces =    3.2785E+04   -2.0659E+05   -2.0626E+06  setid=       0
 node=    18 local x,y,z forces =    1.4033E+04   -1.3253E+05   -2.0565E+06  setid=       0
 node=    25 local x,y,z forces =   -6.0790E+03   -7.9732E+04   -2.0583E+06  setid=       0
 node=    32 local x,y,z forces =   -2.3113E+04   -5.0750E+04   -2.0539E+06  setid=       0
 node=    39 local x,y,z forces =   -3.2611E+04   -2.2183E+04   -2.0523E+06  setid=       0
 node=    46 local x,y,z forces =   -3.6754E+04    2.0373E-10   -2.0506E+06  setid=       0
 node=    53 local x,y,z forces =   -3.2611E+04    2.2183E+04   -2.0523E+06  setid=       0
 node=    60 local x,y,z forces =   -2.3113E+04    5.0750E+04   -2.0539E+06  setid=       0
 node=    67 local x,y,z forces =   -6.0790E+03    7.9732E+04   -2.0583E+06  setid=       0
 node=    74 local x,y,z forces =    1.4033E+04    1.3253E+05   -2.0565E+06  setid=       0
[...]
 node=    25 local x,y,z forces =   -1.0544E+04   -7.5615E+04   -2.0868E+06  setid=       0
 node=    32 local x,y,z forces =   -3.9730E+04   -4.8136E+04   -2.0732E+06  setid=       0
 node=    39 local x,y,z forces =   -5.6004E+04   -2.1039E+04   -2.0665E+06  setid=       0
 node=    46 local x,y,z forces =   -6.3104E+04   -1.2806E-09   -2.0626E+06  setid=       0
 node=    53 local x,y,z forces =   -5.6004E+04    2.1039E+04   -2.0665E+06  setid=       0
 node=    60 local x,y,z forces =   -3.9730E+04    4.8136E+04   -2.0732E+06  setid=       0
 node=    67 local x,y,z forces =   -1.0544E+04    7.5615E+04   -2.0868E+06  setid=       0
 node=    74 local x,y,z forces =    2.3906E+04    1.2573E+05   -2.0958E+06  setid=       0
 node=    81 local x,y,z forces =    5.5981E+04    1.9592E+05   -2.1120E+06  setid=       0
 node=    88 local x,y,z forces =    5.6980E+04    2.8943E+05   -1.1074E+06  setid=       0
 node=  4554 local x,y,z forces =    5.6914E+04   -2.8936E+05    0.0000E+00  setid=       0
 node=  4561 local x,y,z forces =    5.5850E+04   -1.9592E+05    0.0000E+00  setid=       0
 node=  4568 local x,y,z forces =    2.3775E+04   -1.2573E+05    0.0000E+00  setid=       0
 node=  4575 local x,y,z forces =   -1.0674E+04   -7.5615E+04    0.0000E+00  setid=       0
 node=  4582 local x,y,z forces =   -3.9860E+04   -4.8137E+04    0.0000E+00  setid=       0
 node=  4589 local x,y,z forces =   -5.6135E+04   -2.1039E+04    0.0000E+00  setid=       0
 node=  4596 local x,y,z forces =   -6.3235E+04   -2.5029E-09    0.0000E+00  setid=       0
 node=  4603 local x,y,z forces =   -5.6135E+04    2.1039E+04    0.0000E+00  setid=       0
 node=  4610 local x,y,z forces =   -3.9860E+04    4.8137E+04    0.0000E+00  setid=       0
 node=  4617 local x,y,z forces =   -1.0674E+04    7.5615E+04    0.0000E+00  setid=       0
 node=  4624 local x,y,z forces =    2.3775E+04    1.2573E+05    0.0000E+00  setid=       0
 node=  4631 local x,y,z forces =    5.5850E+04    1.9592E+05    0.0000E+00  setid=       0
 node=  4638 local x,y,z forces =    5.6914E+04    2.8936E+05    0.0000E+00  setid=       0
             force resultants   =   -5.4210E+03   -1.3562E-08   -2.5146E+07
 output at time =   4.70000E-02
 node=     4 local x,y,z forces =    5.7237E+04   -2.8918E+05   -1.1080E+06  setid=       0
 node=    11 local x,y,z forces =    5.6236E+04   -1.9575E+05   -2.1128E+06  setid=       0
 node=    18 local x,y,z forces =    2.4017E+04   -1.2562E+05   -2.0964E+06  setid=       0
 node=    25 local x,y,z forces =   -1.0587E+04   -7.5548E+04   -2.0873E+06  setid=       0
 node=    32 local x,y,z forces =   -3.9905E+04   -4.8094E+04   -2.0735E+06  setid=       0
 node=    39 local x,y,z forces =   -5.6253E+04   -2.1020E+04   -2.0668E+06  setid=       0
 node=    46 local x,y,z forces =   -6.3385E+04   -8.7311E-10   -2.0628E+06  setid=       0
 node=    53 local x,y,z forces =   -5.6253E+04    2.1020E+04   -2.0668E+06  setid=       0
 node=    60 local x,y,z forces =   -3.9905E+04    4.8094E+04   -2.0735E+06  setid=       0
 node=    67 local x,y,z forces =   -1.0587E+04    7.5548E+04   -2.0873E+06  setid=       0
 node=    74 local x,y,z forces =    2.4017E+04    1.2562E+05   -2.0964E+06  setid=       0
 node=    81 local x,y,z forces =    5.6236E+04    1.9575E+05   -2.1128E+06  setid=       0
 node=    88 local x,y,z forces =    5.7237E+04    2.8918E+05   -1.1080E+06  setid=       0
 node=  4554 local x,y,z forces =    5.7172E+04   -2.8912E+05    0.0000E+00  setid=       0
 node=  4561 local x,y,z forces =    5.6107E+04   -1.9575E+05    0.0000E+00  setid=       0
 node=  4568 local x,y,z forces =    2.3889E+04   -1.2562E+05    0.0000E+00  setid=       0
 node=  4575 local x,y,z forces =   -1.0716E+04   -7.5548E+04    0.0000E+00  setid=       0
 node=  4582 local x,y,z forces =   -4.0033E+04   -4.8094E+04    0.0000E+00  setid=       0
 node=  4589 local x,y,z forces =   -5.6381E+04   -2.1020E+04    0.0000E+00  setid=       0
 node=  4596 local x,y,z forces =   -6.3513E+04   -1.9791E-09    0.0000E+00  setid=       0
 node=  4603 local x,y,z forces =   -5.6381E+04    2.1020E+04    0.0000E+00  setid=       0
 node=  4610 local x,y,z forces =   -4.0033E+04    4.8094E+04    0.0000E+00  setid=       0
 node=  4617 local x,y,z forces =   -1.0716E+04    7.5548E+04    0.0000E+00  setid=       0
 node=  4624 local x,y,z forces =    2.3889E+04    1.2562E+05    0.0000E+00  setid=       0
 node=  4631 local x,y,z forces =    5.6107E+04    1.9575E+05    0.0000E+00  setid=       0
 node=  4638 local x,y,z forces =    5.7172E+04    2.8912E+05    0.0000E+00  setid=       0
             force resultants   =   -5.3357E+03    1.5425E-08   -2.5152E+07
 output at time =   4.75000E-02
 node=     4 local x,y,z forces =    5.7491E+04   -2.8893E+05   -1.1085E+06  setid=       0
 node=    11 local x,y,z forces =    5.6488E+04   -1.9557E+05   -2.1136E+06  setid=       0
 node=    18 local x,y,z forces =    2.4127E+04   -1.2551E+05   -2.0970E+06  setid=       0
 node=    25 local x,y,z forces =   -1.0631E+04   -7.5480E+04   -2.0877E+06  setid=       0
 node=    32 local x,y,z forces =   -4.0079E+04   -4.8051E+04   -2.0738E+06  setid=       0
 node=    39 local x,y,z forces =   -5.6499E+04   -2.1002E+04   -2.0670E+06  setid=       0
 node=    46 local x,y,z forces =   -6.3663E+04   -8.7311E-10   -2.0630E+06  setid=       0
 node=    53 local x,y,z forces =   -5.6499E+04    2.1002E+04   -2.0670E+06  setid=       0
 node=    60 local x,y,z forces =   -4.0079E+04    4.8051E+04   -2.0738E+06  setid=       0
 node=    67 local x,y,z forces =   -1.0631E+04    7.5480E+04   -2.0877E+06  setid=       0
 node=    74 local x,y,z forces =    2.4127E+04    1.2551E+05   -2.0970E+06  setid=       0
 node=    81 local x,y,z forces =    5.6488E+04    1.9557E+05   -2.1136E+06  setid=       0
 node=    88 local x,y,z forces =    5.7491E+04    2.8893E+05   -1.1085E+06  setid=       0
 node=  4554 local x,y,z forces =    5.7427E+04   -2.8887E+05    0.0000E+00  setid=       0
 node=  4561 local x,y,z forces =    5.6361E+04   -1.9557E+05    0.0000E+00  setid=       0
 node=  4568 local x,y,z forces =    2.4001E+04   -1.2551E+05    0.0000E+00  setid=       0
 node=  4575 local x,y,z forces =   -1.0757E+04   -7.5481E+04    0.0000E+00  setid=       0
 node=  4582 local x,y,z forces =   -4.0205E+04   -4.8051E+04    0.0000E+00  setid=       0
 node=  4589 local x,y,z forces =   -5.6626E+04   -2.1002E+04    0.0000E+00  setid=       0
 node=  4596 local x,y,z forces =   -6.3789E+04   -1.8044E-09    0.0000E+00  setid=       0
 node=  4603 local x,y,z forces =   -5.6626E+04    2.1002E+04    0.0000E+00  setid=       0
 node=  4610 local x,y,z forces =   -4.0205E+04    4.8051E+04    0.0000E+00  setid=       0
 node=  4617 local x,y,z forces =   -1.0757E+04    7.5481E+04    0.0000E+00  setid=       0
 node=  4624 local x,y,z forces =    2.4001E+04    1.2551E+05    0.0000E+00  setid=       0
 node=  4631 local x,y,z forces =    5.6361E+04    1.9557E+05    0.0000E+00  setid=       0
 node=  4638 local x,y,z forces =    5.7427E+04    2.8887E+05    0.0000E+00  setid=       0
             force resultants   =   -5.2526E+03   -1.7462E-09   -2.5159E+07
 output at time =   4.80000E-02
 node=     4 local x,y,z forces =    5.7742E+04   -2.8868E+05   -1.1091E+06  setid=       0
 node=    11 local x,y,z forces =    5.6738E+04   -1.9540E+05   -2.1144E+06  setid=       0
 node=    18 local x,y,z forces =    2.4236E+04   -1.2540E+05   -2.0977E+06  setid=       0
 node=    25 local x,y,z forces =   -1.0674E+04   -7.5413E+04   -2.0882E+06  setid=       0
 node=    32 local x,y,z forces =   -4.0250E+04   -4.8008E+04   -2.0741E+06  setid=       0
 node=    39 local x,y,z forces =   -5.6743E+04   -2.0983E+04   -2.0672E+06  setid=       0
 node=    46 local x,y,z forces =   -6.3938E+04   -4.0745E-10   -2.0632E+06  setid=       0
 node=    53 local x,y,z forces =   -5.6743E+04    2.0983E+04   -2.0672E+06  setid=       0
 node=    60 local x,y,z forces =   -4.0250E+04    4.8008E+04   -2.0741E+06  setid=       0
 node=    67 local x,y,z forces =   -1.0674E+04    7.5413E+04   -2.0882E+06  setid=       0
 node=    74 local x,y,z forces =    2.4236E+04    1.2540E+05   -2.0977E+06  setid=       0
 node=    81 local x,y,z forces =    5.6738E+04    1.9540E+05   -2.1144E+06  setid=       0
 node=    88 local x,y,z forces =    5.7742E+04    2.8868E+05   -1.1091E+06  setid=       0
 node=  4554 local x,y,z forces =    5.7680E+04   -2.8862E+05    0.0000E+00  setid=       0
 node=  4561 local x,y,z forces =    5.6613E+04   -1.9540E+05    0.0000E+00  setid=       0
 node=  4568 local x,y,z forces =    2.4112E+04   -1.2540E+05    0.0000E+00  setid=       0
 node=  4575 local x,y,z forces =   -1.0798E+04   -7.5413E+04    0.0000E+00  setid=       0
 node=  4582 local x,y,z forces =   -4.0375E+04   -4.8008E+04    0.0000E+00  setid=       0
 node=  4589 local x,y,z forces =   -5.6867E+04   -2.0983E+04    0.0000E+00  setid=       0
 node=  4596 local x,y,z forces =   -6.4062E+04   -3.1141E-09    0.0000E+00  setid=       0
 node=  4603 local x,y,z forces =   -5.6867E+04    2.0983E+04    0.0000E+00  setid=       0
 node=  4610 local x,y,z forces =   -4.0375E+04    4.8008E+04    0.0000E+00  setid=       0
 node=  4617 local x,y,z forces =   -1.0798E+04    7.5413E+04    0.0000E+00  setid=       0
 node=  4624 local x,y,z forces =    2.4112E+04    1.2540E+05    0.0000E+00  setid=       0
 node=  4631 local x,y,z forces =    5.6613E+04    1.9540E+05    0.0000E+00  setid=       0
 node=  4638 local x,y,z forces =    5.7680E+04    2.8862E+05    0.0000E+00  setid=       0
             force resultants   =   -5.1717E+03   -1.9092E-08   -2.5165E+07
 output at time =   4.85000E-02
 node=     4 local x,y,z forces =    5.7992E+04   -2.8843E+05   -1.1096E+06  setid=       0
 node=    11 local x,y,z forces =    5.6985E+04   -1.9522E+05   -2.1152E+06  setid=       0
 node=    18 local x,y,z forces =    2.4344E+04   -1.2528E+05   -2.0983E+06  setid=       0
 node=    25 local x,y,z forces =   -1.0716E+04   -7.5346E+04   -2.0887E+06  setid=       0
 node=    32 local x,y,z forces =   -4.0421E+04   -4.7965E+04   -2.0745E+06  setid=       0
 node=    39 local x,y,z forces =   -5.6985E+04   -2.0964E+04   -2.0675E+06  setid=       0
 node=    46 local x,y,z forces =   -6.4210E+04   -3.7835E-10   -2.0634E+06  setid=       0
 node=    53 local x,y,z forces =   -5.6985E+04    2.0964E+04   -2.0675E+06  setid=       0
 node=    60 local x,y,z forces =   -4.0421E+04    4.7965E+04   -2.0745E+06  setid=       0
 node=    67 local x,y,z forces =   -1.0716E+04    7.5346E+04   -2.0887E+06  setid=       0
 node=    74 local x,y,z forces =    2.4344E+04    1.2528E+05   -2.0983E+06  setid=       0
 node=    81 local x,y,z forces =    5.6985E+04    1.9522E+05   -2.1152E+06  setid=       0
 node=    88 local x,y,z forces =    5.7992E+04    2.8843E+05   -1.1096E+06  setid=       0
 node=  4554 local x,y,z forces =    5.7930E+04   -2.8837E+05    0.0000E+00  setid=       0
 node=  4561 local x,y,z forces =    5.6863E+04   -1.9522E+05    0.0000E+00  setid=       0
 node=  4568 local x,y,z forces =    2.4222E+04   -1.2528E+05    0.0000E+00  setid=       0
 node=  4575 local x,y,z forces =   -1.0839E+04   -7.5346E+04    0.0000E+00  setid=       0
 node=  4582 local x,y,z forces =   -4.0543E+04   -4.7965E+04    0.0000E+00  setid=       0
 node=  4589 local x,y,z forces =   -5.7107E+04   -2.0964E+04    0.0000E+00  setid=       0
 node=  4596 local x,y,z forces =   -6.4333E+04   -2.0373E-09    0.0000E+00  setid=       0
 node=  4603 local x,y,z forces =   -5.7107E+04    2.0964E+04    0.0000E+00  setid=       0
 node=  4610 local x,y,z forces =   -4.0543E+04    4.7965E+04    0.0000E+00  setid=       0
 node=  4617 local x,y,z forces =   -1.0839E+04    7.5346E+04    0.0000E+00  setid=       0
 node=  4624 local x,y,z forces =    2.4222E+04    1.2528E+05    0.0000E+00  setid=       0
 node=  4631 local x,y,z forces =    5.6863E+04    1.9522E+05    0.0000E+00  setid=       0
 node=  4638 local x,y,z forces =    5.7930E+04    2.8837E+05    0.0000E+00  setid=       0
             force resultants   =   -5.0928E+03    1.5716E-09   -2.5171E+07
 output at time =   4.90000E-02
 node=     4 local x,y,z forces =    5.8238E+04   -2.8818E+05   -1.1102E+06  setid=       0
 node=    11 local x,y,z forces =    5.7230E+04   -1.9505E+05   -2.1160E+06  setid=       0
 node=    18 local x,y,z forces =    2.4451E+04   -1.2517E+05   -2.0989E+06  setid=       0
 node=    25 local x,y,z forces =   -1.0759E+04   -7.5278E+04   -2.0891E+06  setid=       0
 node=    32 local x,y,z forces =   -4.0589E+04   -4.7922E+04   -2.0748E+06  setid=       0
 node=    39 local x,y,z forces =   -5.7224E+04   -2.0946E+04   -2.0677E+06  setid=       0
 node=    46 local x,y,z forces =   -6.4480E+04   -1.1933E-09   -2.0636E+06  setid=       0
 node=    53 local x,y,z forces =   -5.7224E+04    2.0946E+04   -2.0677E+06  setid=       0
 node=    60 local x,y,z forces =   -4.0589E+04    4.7922E+04   -2.0748E+06  setid=       0
 node=    67 local x,y,z forces =   -1.0759E+04    7.5278E+04   -2.0891E+06  setid=       0
 node=    74 local x,y,z forces =    2.4451E+04    1.2517E+05   -2.0989E+06  setid=       0
 node=    81 local x,y,z forces =    5.7230E+04    1.9505E+05   -2.1160E+06  setid=       0
 node=    88 local x,y,z forces =    5.8238E+04    2.8818E+05   -1.1102E+06  setid=       0
 node=  4554 local x,y,z forces =    5.8178E+04   -2.8813E+05    0.0000E+00  setid=       0
 node=  4561 local x,y,z forces =    5.7109E+04   -1.9505E+05    0.0000E+00  setid=       0
 node=  4568 local x,y,z forces =    2.4331E+04   -1.2517E+05    0.0000E+00  setid=       0
 node=  4575 local x,y,z forces =   -1.0879E+04   -7.5278E+04    0.0000E+00  setid=       0
 node=  4582 local x,y,z forces =   -4.0710E+04   -4.7922E+04    0.0000E+00  setid=       0
 node=  4589 local x,y,z forces =   -5.7344E+04   -2.0946E+04    0.0000E+00  setid=       0
 node=  4596 local x,y,z forces =   -6.4601E+04   -1.6880E-09    0.0000E+00  setid=       0
 node=  4603 local x,y,z forces =   -5.7344E+04    2.0946E+04    0.0000E+00  setid=       0
 node=  4610 local x,y,z forces =   -4.0710E+04    4.7922E+04    0.0000E+00  setid=       0
 node=  4617 local x,y,z forces =   -1.0879E+04    7.5278E+04    0.0000E+00  setid=       0
 node=  4624 local x,y,z forces =    2.4331E+04    1.2517E+05    0.0000E+00  setid=       0
 node=  4631 local x,y,z forces =    5.7109E+04    1.9505E+05    0.0000E+00  setid=       0
 node=  4638 local x,y,z forces =    5.8178E+04    2.8813E+05    0.0000E+00  setid=       0
             force resultants   =   -5.0159E+03   -4.9477E-09   -2.5177E+07
 output at time =   4.95000E-02
 node=     4 local x,y,z forces =    5.8482E+04   -2.8793E+05   -1.1107E+06  setid=       0
 node=    11 local x,y,z forces =    5.7472E+04   -1.9487E+05   -2.1168E+06  setid=       0
 node=    18 local x,y,z forces =    2.4557E+04   -1.2506E+05   -2.0996E+06  setid=       0
 node=    25 local x,y,z forces =   -1.0801E+04   -7.5211E+04   -2.0896E+06  setid=       0
 node=    32 local x,y,z forces =   -4.0756E+04   -4.7879E+04   -2.0751E+06  setid=       0
 node=    39 local x,y,z forces =   -5.7461E+04   -2.0927E+04   -2.0679E+06  setid=       0
 node=    46 local x,y,z forces =   -6.4748E+04   -7.8580E-10   -2.0638E+06  setid=       0
 node=    53 local x,y,z forces =   -5.7461E+04    2.0927E+04   -2.0679E+06  setid=       0
 node=    60 local x,y,z forces =   -4.0756E+04    4.7879E+04   -2.0751E+06  setid=       0
 node=    67 local x,y,z forces =   -1.0801E+04    7.5211E+04   -2.0896E+06  setid=       0
 node=    74 local x,y,z forces =    2.4557E+04    1.2506E+05   -2.0996E+06  setid=       0
 node=    81 local x,y,z forces =    5.7472E+04    1.9487E+05   -2.1168E+06  setid=       0
 node=    88 local x,y,z forces =    5.8482E+04    2.8793E+05   -1.1107E+06  setid=       0
 node=  4554 local x,y,z forces =    5.8423E+04   -2.8788E+05    0.0000E+00  setid=       0
 node=  4561 local x,y,z forces =    5.7354E+04   -1.9487E+05    0.0000E+00  setid=       0
 node=  4568 local x,y,z forces =    2.4438E+04   -1.2506E+05    0.0000E+00  setid=       0
 node=  4575 local x,y,z forces =   -1.0919E+04   -7.5211E+04    0.0000E+00  setid=       0
 node=  4582 local x,y,z forces =   -4.0875E+04   -4.7880E+04    0.0000E+00  setid=       0
 node=  4589 local x,y,z forces =   -5.7579E+04   -2.0927E+04    0.0000E+00  setid=       0
 node=  4596 local x,y,z forces =   -6.4866E+04   -9.0222E-10    0.0000E+00  setid=       0
 node=  4603 local x,y,z forces =   -5.7579E+04    2.0927E+04    0.0000E+00  setid=       0
 node=  4610 local x,y,z forces =   -4.0875E+04    4.7880E+04    0.0000E+00  setid=       0
 node=  4617 local x,y,z forces =   -1.0919E+04    7.5211E+04    0.0000E+00  setid=       0
 node=  4624 local x,y,z forces =    2.4438E+04    1.2506E+05    0.0000E+00  setid=       0
 node=  4631 local x,y,z forces =    5.7354E+04    1.9487E+05    0.0000E+00  setid=       0
 node=  4638 local x,y,z forces =    5.8423E+04    2.8788E+05    0.0000E+00  setid=       0
             force resultants   =   -4.9410E+03    2.3283E-09   -2.5183E+07
 output at time =   5.00000E-02
 node=     4 local x,y,z forces =    5.8724E+04   -2.8768E+05   -1.1113E+06  setid=       0
 node=    11 local x,y,z forces =    5.7713E+04   -1.9470E+05   -2.1176E+06  setid=       0
 node=    18 local x,y,z forces =    2.4662E+04   -1.2495E+05   -2.1002E+06  setid=       0
 node=    25 local x,y,z forces =   -1.0842E+04   -7.5143E+04   -2.0901E+06  setid=       0
 node=    32 local x,y,z forces =   -4.0922E+04   -4.7837E+04   -2.0754E+06  setid=       0
 node=    39 local x,y,z forces =   -5.7695E+04   -2.0908E+04   -2.0682E+06  setid=       0
 node=    46 local x,y,z forces =   -6.5013E+04   -6.9849E-10   -2.0640E+06  setid=       0
 node=    53 local x,y,z forces =   -5.7695E+04    2.0908E+04   -2.0682E+06  setid=       0
 node=    60 local x,y,z forces =   -4.0922E+04    4.7837E+04   -2.0754E+06  setid=       0
 node=    67 local x,y,z forces =   -1.0842E+04    7.5143E+04   -2.0901E+06  setid=       0
 node=    74 local x,y,z forces =    2.4662E+04    1.2495E+05   -2.1002E+06  setid=       0
 node=    81 local x,y,z forces =    5.7713E+04    1.9470E+05   -2.1176E+06  setid=       0
 node=    88 local x,y,z forces =    5.8724E+04    2.8768E+05   -1.1113E+06  setid=       0
 node=  4554 local x,y,z forces =    5.8666E+04   -2.8763E+05    0.0000E+00  setid=       0
 node=  4561 local x,y,z forces =    5.7596E+04   -1.9470E+05    0.0000E+00  setid=       0
 node=  4568 local x,y,z forces =    2.4545E+04   -1.2495E+05    0.0000E+00  setid=       0
 node=  4575 local x,y,z forces =   -1.0959E+04   -7.5143E+04    0.0000E+00  setid=       0
 node=  4582 local x,y,z forces =   -4.1038E+04   -4.7837E+04    0.0000E+00  setid=       0
 node=  4589 local x,y,z forces =   -5.7812E+04   -2.0908E+04    0.0000E+00  setid=       0
 node=  4596 local x,y,z forces =   -6.5129E+04   -3.7835E-09    0.0000E+00  setid=       0
 node=  4603 local x,y,z forces =   -5.7812E+04    2.0908E+04    0.0000E+00  setid=       0
 node=  4610 local x,y,z forces =   -4.1038E+04    4.7837E+04    0.0000E+00  setid=       0
 node=  4617 local x,y,z forces =   -1.0959E+04    7.5143E+04    0.0000E+00  setid=       0
 node=  4624 local x,y,z forces =    2.4545E+04    1.2495E+05    0.0000E+00  setid=       0
 node=  4631 local x,y,z forces =    5.7596E+04    1.9470E+05    0.0000E+00  setid=       0
 node=  4638 local x,y,z forces =    5.8666E+04    2.8763E+05    0.0000E+00  setid=       0
             force resultants   =   -4.8679E+03   -2.0373E-09   -2.5189E+07
