 400x600                                                                 
                         ls-dyna smp.123264 d           date 01/12/2018

{BEGIN LEGEND}
 Entity #        Title
        0     bottom                                                                
        0     top                                                                   
        0     middle                                                                
{END LEGEND}

 single point constraint forces

 output at time =   0.00000E+00
 node=     1 local x,y,z forces =    0.0000E+00    0.0000E+00    0.0000E+00  setid=       0
 node=     2 local x,y,z forces =    0.0000E+00    0.0000E+00    0.0000E+00  setid=       0
 node=     3 local x,y,z forces =    0.0000E+00    0.0000E+00    0.0000E+00  setid=       0
 node=     4 local x,y,z forces =    0.0000E+00    0.0000E+00    0.0000E+00  setid=       0
 node=     5 local x,y,z forces =    0.0000E+00    0.0000E+00    0.0000E+00  setid=       0
 node=     6 local x,y,z forces =    0.0000E+00    0.0000E+00    0.0000E+00  setid=       0
 node=     7 local x,y,z forces =    0.0000E+00    0.0000E+00    0.0000E+00  setid=       0
 node=     8 local x,y,z forces =    0.0000E+00    0.0000E+00    0.0000E+00  setid=       0
 node=     9 local x,y,z forces =    0.0000E+00    0.0000E+00    0.0000E+00  setid=       0
 node=    10 local x,y,z forces =    0.0000E+00    0.0000E+00    0.0000E+00  setid=       0
 node=    11 local x,y,z forces =    0.0000E+00    0.0000E+00    0.0000E+00  setid=       0
 node=    12 local x,y,z forces =    0.0000E+00    0.0000E+00    0.0000E+00  setid=       0
 node=    13 local x,y,z forces =    0.0000E+00    0.0000E+00    0.0000E+00  setid=       0
 node=    14 local x,y,z forces =    0.0000E+00    0.0000E+00    0.0000E+00  setid=       0
 node=    15 local x,y,z forces =    0.0000E+00    0.0000E+00    0.0000E+00  setid=       0
 node=    16 local x,y,z forces =    0.0000E+00    0.0000E+00    0.0000E+00  setid=       0
 node=    17 local x,y,z forces =    0.0000E+00    0.0000E+00    0.0000E+00  setid=       0
 node=    18 local x,y,z forces =    0.0000E+00    0.0000E+00    0.0000E+00  setid=       0
 node=    19 local x,y,z forces =    0.0000E+00    0.0000E+00    0.0000E+00  setid=       0
 node=    20 local x,y,z forces =    0.0000E+00    0.0000E+00    0.0000E+00  setid=       0
 node=    21 local x,y,z forces =    0.0000E+00    0.0000E+00    0.0000E+00  setid=       0
 node=    22 local x,y,z forces =    0.0000E+00    0.0000E+00    0.0000E+00  setid=       0
 node=    23 local x,y,z forces =    0.0000E+00    0.0000E+00    0.0000E+00  setid=       0
 node=    24 local x,y,z forces =    0.0000E+00    0.0000E+00    0.0000E+00  setid=       0
 node=    25 local x,y,z forces =    0.0000E+00    0.0000E+00    0.0000E+00  setid=       0
 node=    26 local x,y,z forces =    0.0000E+00    0.0000E+00    0.0000E+00  setid=       0
 node=    27 local x,y,z forces =    0.0000E+00    0.0000E+00    0.0000E+00  setid=       0
 node=    28 local x,y,z forces =    0.0000E+00    0.0000E+00    0.0000E+00  setid=       0
 node=    29 local x,y,z forces =    0.0000E+00    0.0000E+00    0.0000E+00  setid=       0
 node=    30 local x,y,z forces =    0.0000E+00    0.0000E+00    0.0000E+00  setid=       0
 node=    31 local x,y,z forces =    0.0000E+00    0.0000E+00    0.0000E+00  setid=       0
 node=    32 local x,y,z forces =    0.0000E+00    0.0000E+00    0.0000E+00  setid=       0
 node=    33 local x,y,z forces =    0.0000E+00    0.0000E+00    0.0000E+00  setid=       0
 node=    34 local x,y,z forces =    0.0000E+00    0.0000E+00    0.0000E+00  setid=       0
 node=    35 local x,y,z forces =    0.0000E+00    0.0000E+00    0.0000E+00  setid=       0
 node=    36 local x,y,z forces =    0.0000E+00    0.0000E+00    0.0000E+00  setid=       0
 node=    37 local x,y,z forces =    0.0000E+00    0.0000E+00    0.0000E+00  setid=       0
 node=    38 local x,y,z forces =    0.0000E+00    0.0000E+00    0.0000E+00  setid=       0
 node=    39 local x,y,z forces =    0.0000E+00    0.0000E+00    0.0000E+00  setid=       0
 node=    40 local x,y,z forces =    0.0000E+00    0.0000E+00    0.0000E+00  setid=       0
 node=    41 local x,y,z forces =    0.0000E+00    0.0000E+00    0.0000E+00  setid=       0
 node=    42 local x,y,z forces =    0.0000E+00    0.0000E+00    0.0000E+00  setid=       0
 node=    43 local x,y,z forces =    0.0000E+00    0.0000E+00    0.0000E+00  setid=       0
 node=    44 local x,y,z forces =    0.0000E+00    0.0000E+00    0.0000E+00  setid=       0
 node=    45 local x,y,z forces =    0.0000E+00    0.0000E+00    0.0000E+00  setid=       0
 node=    46 local x,y,z forces =    0.0000E+00    0.0000E+00    0.0000E+00  setid=       0
 node=    47 local x,y,z forces =    0.0000E+00    0.0000E+00    0.0000E+00  setid=       0
 node=    48 local x,y,z forces =    0.0000E+00    0.0000E+00    0.0000E+00  setid=       0
 node=    49 local x,y,z forces =    0.0000E+00    0.0000E+00    0.0000E+00  setid=       0
 node=    50 local x,y,z forces =    0.0000E+00    0.0000E+00    0.0000E+00  setid=       0
 node=    51 local x,y,z forces =    0.0000E+00    0.0000E+00    0.0000E+00  setid=       0
 node=    52 local x,y,z forces =    0.0000E+00    0.0000E+00    0.0000E+00  setid=       0
 node=    53 local x,y,z forces =    0.0000E+00    0.0000E+00    0.0000E+00  setid=       0
 node=    54 local x,y,z forces =    0.0000E+00    0.0000E+00    0.0000E+00  setid=       0
 node=    55 local x,y,z forces =    0.0000E+00    0.0000E+00    0.0000E+00  setid=       0
 node=    56 local x,y,z forces =    0.0000E+00    0.0000E+00    0.0000E+00  setid=       0
 node=    57 local x,y,z forces =    0.0000E+00    0.0000E+00    0.0000E+00  setid=       0
 node=    58 local x,y,z forces =    0.0000E+00    0.0000E+00    0.0000E+00  setid=       0
 node=    59 local x,y,z forces =    0.0000E+00    0.0000E+00    0.0000E+00  setid=       0
 node=    60 local x,y,z forces =    0.0000E+00    0.0000E+00    0.0000E+00  setid=       0
 node=    61 local x,y,z forces =    0.0000E+00    0.0000E+00    0.0000E+00  setid=       0
 node=    62 local x,y,z forces =    0.0000E+00    0.0000E+00    0.0000E+00  setid=       0
 node=    63 local x,y,z forces =    0.0000E+00    0.0000E+00    0.0000E+00  setid=       0
 node=    64 local x,y,z forces =    0.0000E+00    0.0000E+00    0.0000E+00  setid=       0
 node=    65 local x,y,z forces =    0.0000E+00    0.0000E+00    0.0000E+00  setid=       0
 node=    66 local x,y,z forces =    0.0000E+00    0.0000E+00    0.0000E+00  setid=       0
 node=    67 local x,y,z forces =    0.0000E+00    0.0000E+00    0.0000E+00  setid=       0
 node=    68 local x,y,z forces =    0.0000E+00    0.0000E+00    0.0000E+00  setid=       0
 node=    69 local x,y,z forces =    0.0000E+00    0.0000E+00    0.0000E+00  setid=       0
 node=    70 local x,y,z forces =    0.0000E+00    0.0000E+00    0.0000E+00  setid=       0
 node=    71 local x,y,z forces =    0.0000E+00    0.0000E+00    0.0000E+00  setid=       0
 node=    72 local x,y,z forces =    0.0000E+00    0.0000E+00    0.0000E+00  setid=       0
 node=    73 local x,y,z forces =    0.0000E+00    0.0000E+00    0.0000E+00  setid=       0
 node=    74 local x,y,z forces =    0.0000E+00    0.0000E+00    0.0000E+00  setid=       0
 node=    75 local x,y,z forces =    0.0000E+00    0.0000E+00    0.0000E+00  setid=       0
 node=    76 local x,y,z forces =    0.0000E+00    0.0000E+00    0.0000E+00  setid=       0
 node=    77 local x,y,z forces =    0.0000E+00    0.0000E+00    0.0000E+00  setid=       0
 node=    78 local x,y,z forces =    0.0000E+00    0.0000E+00    0.0000E+00  setid=       0
 node=    79 local x,y,z forces =    0.0000E+00    0.0000E+00    0.0000E+00  setid=       0
 node=    80 local x,y,z forces =    0.0000E+00    0.0000E+00    0.0000E+00  setid=       0
 node=    81 local x,y,z forces =    0.0000E+00    0.0000E+00    0.0000E+00  setid=       0
 node=    82 local x,y,z forces =    0.0000E+00    0.0000E+00    0.0000E+00  setid=       0
 node=    83 local x,y,z forces =    0.0000E+00    0.0000E+00    0.0000E+00  setid=       0
 node=    84 local x,y,z forces =    0.0000E+00    0.0000E+00    0.0000E+00  setid=       0
 node=    85 local x,y,z forces =    0.0000E+00    0.0000E+00    0.0000E+00  setid=       0
 node=    86 local x,y,z forces =    0.0000E+00    0.0000E+00    0.0000E+00  setid=       0
 node=    87 local x,y,z forces =    0.0000E+00    0.0000E+00    0.0000E+00  setid=       0
 node=    88 local x,y,z forces =    0.0000E+00    0.0000E+00    0.0000E+00  setid=       0
 node=    89 local x,y,z forces =    0.0000E+00    0.0000E+00    0.0000E+00  setid=       0
 node=    90 local x,y,z forces =    0.0000E+00    0.0000E+00    0.0000E+00  setid=       0
 node=    91 local x,y,z forces =    0.0000E+00    0.0000E+00    0.0000E+00  setid=       0
 node=  4551 local x,y,z forces =    0.0000E+00    0.0000E+00    0.0000E+00  setid=       0
 node=  4552 local x,y,z forces =    0.0000E+00    0.0000E+00    0.0000E+00  setid=       0
 node=  4553 local x,y,z forces =    0.0000E+00    0.0000E+00    0.0000E+00  setid=       0
 node=  4554 local x,y,z forces =    0.0000E+00    0.0000E+00    0.0000E+00  setid=       0
 node=  4555 local x,y,z forces =    0.0000E+00    0.0000E+00    0.0000E+00  setid=       0
 node=  4556 local x,y,z forces =    0.0000E+00    0.0000E+00    0.0000E+00  setid=       0
 node=  4557 local x,y,z forces =    0.0000E+00    0.0000E+00    0.0000E+00  setid=       0
 node=  4558 local x,y,z forces =    0.0000E+00    0.0000E+00    0.0000E+00  setid=       0
 node=  4559 local x,y,z forces =    0.0000E+00    0.0000E+00    0.0000E+00  setid=       0
 node=  4560 local x,y,z forces =    0.0000E+00    0.0000E+00    0.0000E+00  setid=       0
 node=  4561 local x,y,z forces =    0.0000E+00    0.0000E+00    0.0000E+00  setid=       0
 node=  4562 local x,y,z forces =    0.0000E+00    0.0000E+00    0.0000E+00  setid=       0
 node=  4563 local x,y,z forces =    0.0000E+00    0.0000E+00    0.0000E+00  setid=       0
 node=  4564 local x,y,z forces =    0.0000E+00    0.0000E+00    0.0000E+00  setid=       0
 node=  4565 local x,y,z forces =    0.0000E+00    0.0000E+00    0.0000E+00  setid=       0
 node=  4566 local x,y,z forces =    0.0000E+00    0.0000E+00    0.0000E+00  setid=       0
 node=  4567 local x,y,z forces =    0.0000E+00    0.0000E+00    0.0000E+00  setid=       0
 node=  4568 local x,y,z forces =    0.0000E+00    0.0000E+00    0.0000E+00  setid=       0
 node=  4569 local x,y,z forces =    0.0000E+00    0.0000E+00    0.0000E+00  setid=       0
 node=  4570 local x,y,z forces =    0.0000E+00    0.0000E+00    0.0000E+00  setid=       0
 node=  4571 local x,y,z forces =    0.0000E+00    0.0000E+00    0.0000E+00  setid=       0
 node=  4572 local x,y,z forces =    0.0000E+00    0.0000E+00    0.0000E+00  setid=       0
 node=  4573 local x,y,z forces =    0.0000E+00    0.0000E+00    0.0000E+00  setid=       0
 node=  4574 local x,y,z forces =    0.0000E+00    0.0000E+00    0.0000E+00  setid=       0
 node=  4575 local x,y,z forces =    0.0000E+00    0.0000E+00    0.0000E+00  setid=       0
 node=  4576 local x,y,z forces =    0.0000E+00    0.0000E+00    0.0000E+00  setid=       0
 node=  4577 local x,y,z forces =    0.0000E+00    0.0000E+00    0.0000E+00  setid=       0
 node=  4578 local x,y,z forces =    0.0000E+00    0.0000E+00    0.0000E+00  setid=       0
 node=  4579 local x,y,z forces =    0.0000E+00    0.0000E+00    0.0000E+00  setid=       0
 node=  4580 local x,y,z forces =    0.0000E+00    0.0000E+00    0.0000E+00  setid=       0
 node=  4581 local x,y,z forces =    0.0000E+00    0.0000E+00    0.0000E+00  setid=       0
 node=  4582 local x,y,z forces =    0.0000E+00    0.0000E+00    0.0000E+00  setid=       0
 node=  4583 local x,y,z forces =    0.0000E+00    0.0000E+00    0.0000E+00  setid=       0
 node=  4584 local x,y,z forces =    0.0000E+00    0.0000E+00    0.0000E+00  setid=       0
 node=  4585 local x,y,z forces =    0.0000E+00    0.0000E+00    0.0000E+00  setid=       0
 node=  4586 local x,y,z forces =    0.0000E+00    0.0000E+00    0.0000E+00  setid=       0
 node=  4587 local x,y,z forces =    0.0000E+00    0.0000E+00    0.0000E+00  setid=       0
 node=  4588 local x,y,z forces =    0.0000E+00    0.0000E+00    0.0000E+00  setid=       0
 node=  4589 local x,y,z forces =    0.0000E+00    0.0000E+00    0.0000E+00  setid=       0
 node=  4590 local x,y,z forces =    0.0000E+00    0.0000E+00    0.0000E+00  setid=       0
 node=  4591 local x,y,z forces =    0.0000E+00    0.0000E+00    0.0000E+00  setid=       0
 node=  4592 local x,y,z forces =    0.0000E+00    0.0000E+00    0.0000E+00  setid=       0
 node=  4593 local x,y,z forces =    0.0000E+00    0.0000E+00    0.0000E+00  setid=       0
 node=  4594 local x,y,z forces =    0.0000E+00    0.0000E+00    0.0000E+00  setid=       0
 node=  4595 local x,y,z forces =    0.0000E+00    0.0000E+00    0.0000E+00  setid=       0
 node=  4596 local x,y,z forces =    0.0000E+00    0.0000E+00    0.0000E+00  setid=       0
 node=  4597 local x,y,z forces =    0.0000E+00    0.0000E+00    0.0000E+00  setid=       0
 node=  4598 local x,y,z forces =    0.0000E+00    0.0000E+00    0.0000E+00  setid=       0
 node=  4599 local x,y,z forces =    0.0000E+00    0.0000E+00    0.0000E+00  setid=       0
 node=  4600 local x,y,z forces =    0.0000E+00    0.0000E+00    0.0000E+00  setid=       0
 node=  4601 local x,y,z forces =    0.0000E+00    0.0000E+00    0.0000E+00  setid=       0
 node=  4602 local x,y,z forces =    0.0000E+00    0.0000E+00    0.0000E+00  setid=       0
 node=  4603 local x,y,z forces =    0.0000E+00    0.0000E+00    0.0000E+00  setid=       0
 node=  4604 local x,y,z forces =    0.0000E+00    0.0000E+00    0.0000E+00  setid=       0
 node=  4605 local x,y,z forces =    0.0000E+00    0.0000E+00    0.0000E+00  setid=       0
 node=  4606 local x,y,z forces =    0.0000E+00    0.0000E+00    0.0000E+00  setid=       0
 node=  4607 local x,y,z forces =    0.0000E+00    0.0000E+00    0.0000E+00  setid=       0
 node=  4608 local x,y,z forces =    0.0000E+00    0.0000E+00    0.0000E+00  setid=       0
 node=  4609 local x,y,z forces =    0.0000E+00    0.0000E+00    0.0000E+00  setid=       0
 node=  4610 local x,y,z forces =    0.0000E+00    0.0000E+00    0.0000E+00  setid=       0
 node=  4611 local x,y,z forces =    0.0000E+00    0.0000E+00    0.0000E+00  setid=       0
 node=  4612 local x,y,z forces =    0.0000E+00    0.0000E+00    0.0000E+00  setid=       0
 node=  4613 local x,y,z forces =    0.0000E+00    0.0000E+00    0.0000E+00  setid=       0
 node=  4614 local x,y,z forces =    0.0000E+00    0.0000E+00    0.0000E+00  setid=       0
 node=  4615 local x,y,z forces =    0.0000E+00    0.0000E+00    0.0000E+00  setid=       0
 node=  4616 local x,y,z forces =    0.0000E+00    0.0000E+00    0.0000E+00  setid=       0
 node=  4617 local x,y,z forces =    0.0000E+00    0.0000E+00    0.0000E+00  setid=       0
 node=  4618 local x,y,z forces =    0.0000E+00    0.0000E+00    0.0000E+00  setid=       0
 node=  4619 local x,y,z forces =    0.0000E+00    0.0000E+00    0.0000E+00  setid=       0
 node=  4620 local x,y,z forces =    0.0000E+00    0.0000E+00    0.0000E+00  setid=       0
 node=  4621 local x,y,z forces =    0.0000E+00    0.0000E+00    0.0000E+00  setid=       0
 node=  4622 local x,y,z forces =    0.0000E+00    0.0000E+00    0.0000E+00  setid=       0
 node=  4623 local x,y,z forces =    0.0000E+00    0.0000E+00    0.0000E+00  setid=       0
 node=  4624 local x,y,z forces =    0.0000E+00    0.0000E+00    0.0000E+00  setid=       0
 node=  4625 local x,y,z forces =    0.0000E+00    0.0000E+00    0.0000E+00  setid=       0
 node=  4626 local x,y,z forces =    0.0000E+00    0.0000E+00    0.0000E+00  setid=       0
 node=  4627 local x,y,z forces =    0.0000E+00    0.0000E+00    0.0000E+00  setid=       0
 node=  4628 local x,y,z forces =    0.0000E+00    0.0000E+00    0.0000E+00  setid=       0
 node=  4629 local x,y,z forces =    0.0000E+00    0.0000E+00    0.0000E+00  setid=       0
 node=  4630 local x,y,z forces =    0.0000E+00    0.0000E+00    0.0000E+00  setid=       0
 node=  4631 local x,y,z forces =    0.0000E+00    0.0000E+00    0.0000E+00  setid=       0
 node=  4632 local x,y,z forces =    0.0000E+00    0.0000E+00    0.0000E+00  setid=       0
 node=  4633 local x,y,z forces =    0.0000E+00    0.0000E+00    0.0000E+00  setid=       0
 node=  4634 local x,y,z forces =    0.0000E+00    0.0000E+00    0.0000E+00  setid=       0
 node=  4635 local x,y,z forces =    0.0000E+00    0.0000E+00    0.0000E+00  setid=       0
 node=  4636 local x,y,z forces =    0.0000E+00    0.0000E+00    0.0000E+00  setid=       0
 node=  4637 local x,y,z forces =    0.0000E+00    0.0000E+00    0.0000E+00  setid=       0
 node=  4638 local x,y,z forces =    0.0000E+00    0.0000E+00    0.0000E+00  setid=       0
 node=  4639 local x,y,z forces =    0.0000E+00    0.0000E+00    0.0000E+00  setid=       0
 node=  4640 local x,y,z forces =    0.0000E+00    0.0000E+00    0.0000E+00  setid=       0
 node=  4641 local x,y,z forces =    0.0000E+00    0.0000E+00    0.0000E+00  setid=       0
             force resultants   =    0.0000E+00    0.0000E+00    0.0000E+00
 output at time =   5.00000E-04
 node=     1 local x,y,z forces =   -9.7962E+03   -1.2288E+04   -3.4654E+04  setid=       0
 node=     2 local x,y,z forces =   -5.9194E+03   -2.3385E+04   -5.9488E+04  setid=       0
 node=     3 local x,y,z forces =   -3.1154E+03   -2.2699E+04   -5.6204E+04  setid=       0
 node=     4 local x,y,z forces =   -1.1114E+01   -2.2947E+04   -5.7490E+04  setid=       0
 node=     5 local x,y,z forces =    3.0967E+03   -2.2721E+04   -5.6260E+04  setid=       0
 node=     6 local x,y,z forces =    5.9090E+03   -2.3430E+04   -5.9601E+04  setid=       0
 node=     7 local x,y,z forces =    9.8102E+03   -1.2317E+04   -3.4731E+04  setid=       0
 node=     8 local x,y,z forces =   -1.8241E+04   -7.3838E+03   -5.5822E+04  setid=       0
 node=     9 local x,y,z forces =   -1.1766E+04   -1.4830E+04   -9.1734E+04  setid=       0
 node=    10 local x,y,z forces =   -6.2012E+03   -1.5054E+04   -8.4742E+04  setid=       0
 node=    11 local x,y,z forces =   -1.7882E+01   -1.5198E+04   -8.7198E+04  setid=       0
 node=    12 local x,y,z forces =    6.1728E+03   -1.5069E+04   -8.4827E+04  setid=       0
 node=    13 local x,y,z forces =    1.1753E+04   -1.4860E+04   -9.1911E+04  setid=       0
 node=    14 local x,y,z forces =    1.8269E+04   -7.4036E+03   -5.5949E+04  setid=       0
 node=    15 local x,y,z forces =   -1.7236E+04   -6.6478E+03   -4.9964E+04  setid=       0
 node=    16 local x,y,z forces =   -1.1833E+04   -1.3292E+04   -7.9830E+04  setid=       0
 node=    17 local x,y,z forces =   -6.2851E+03   -1.3445E+04   -7.2687E+04  setid=       0
 node=    18 local x,y,z forces =   -1.2682E+01   -1.3587E+04   -7.5205E+04  setid=       0
 node=    19 local x,y,z forces =    6.2675E+03   -1.3459E+04   -7.2762E+04  setid=       0
 node=    20 local x,y,z forces =    1.1829E+04   -1.3319E+04   -7.9991E+04  setid=       0
 node=    21 local x,y,z forces =    1.7268E+04   -6.6659E+03   -5.0085E+04  setid=       0
 node=    22 local x,y,z forces =   -1.7290E+04   -3.9972E+03   -5.0507E+04  setid=       0
 node=    23 local x,y,z forces =   -1.2012E+04   -7.9089E+03   -8.0783E+04  setid=       0
 node=    24 local x,y,z forces =   -6.4696E+03   -7.8795E+03   -7.3700E+04  setid=       0
 node=    25 local x,y,z forces =   -1.0480E+01   -7.9253E+03   -7.6367E+04  setid=       0
 node=    26 local x,y,z forces =    6.4567E+03   -7.8876E+03   -7.3777E+04  setid=       0
 node=    27 local x,y,z forces =    1.2011E+04   -7.9256E+03   -8.0951E+04  setid=       0
 node=    28 local x,y,z forces =    1.7324E+04   -4.0083E+03   -5.0634E+04  setid=       0
 node=    29 local x,y,z forces =   -1.7254E+04   -2.7912E+03   -4.9824E+04  setid=       0
 node=    30 local x,y,z forces =   -1.2134E+04   -5.5133E+03   -7.9235E+04  setid=       0
 node=    31 local x,y,z forces =   -6.5953E+03   -5.4599E+03   -7.2068E+04  setid=       0
 node=    32 local x,y,z forces =   -9.1624E+00   -5.4686E+03   -7.4787E+04  setid=       0
 node=    33 local x,y,z forces =    6.5851E+03   -5.4656E+03   -7.2145E+04  setid=       0
 node=    34 local x,y,z forces =    1.2135E+04   -5.5249E+03   -7.9404E+04  setid=       0
 node=    35 local x,y,z forces =    1.7289E+04   -2.7988E+03   -4.9954E+04  setid=       0
 node=    36 local x,y,z forces =   -1.7296E+04   -1.2619E+03   -5.0073E+04  setid=       0
 node=    37 local x,y,z forces =   -1.2203E+04   -2.4819E+03   -7.9632E+04  setid=       0
 node=    38 local x,y,z forces =   -6.6623E+03   -2.4405E+03   -7.2420E+04  setid=       0
 node=    39 local x,y,z forces =   -8.5416E+00   -2.4383E+03   -7.5165E+04  setid=       0
 node=    40 local x,y,z forces =    6.6535E+03   -2.4430E+03   -7.2497E+04  setid=       0
 node=    41 local x,y,z forces =    1.2205E+04   -2.4872E+03   -7.9804E+04  setid=       0
 node=    42 local x,y,z forces =    1.7332E+04   -1.2653E+03   -5.0205E+04  setid=       0
 node=    43 local x,y,z forces =   -1.7288E+04    5.4570E-12   -4.9862E+04  setid=       0
 node=    44 local x,y,z forces =   -1.2223E+04    0.0000E+00   -7.9168E+04  setid=       0
 node=    45 local x,y,z forces =   -6.6827E+03   -2.5466E-11   -7.1930E+04  setid=       0
 node=    46 local x,y,z forces =   -8.3344E+00   -1.4552E-11   -7.4679E+04  setid=       0
 node=    47 local x,y,z forces =    6.6743E+03   -3.6380E-12   -7.2008E+04  setid=       0
 node=    48 local x,y,z forces =    1.2226E+04   -3.6380E-12   -7.9340E+04  setid=       0
 node=    49 local x,y,z forces =    1.7325E+04   -1.8190E-12   -4.9994E+04  setid=       0
 node=    50 local x,y,z forces =   -1.7296E+04    1.2619E+03   -5.0073E+04  setid=       0
 node=    51 local x,y,z forces =   -1.2203E+04    2.4819E+03   -7.9632E+04  setid=       0
 node=    52 local x,y,z forces =   -6.6623E+03    2.4405E+03   -7.2420E+04  setid=       0
 node=    53 local x,y,z forces =   -8.5416E+00    2.4383E+03   -7.5165E+04  setid=       0
 node=    54 local x,y,z forces =    6.6535E+03    2.4430E+03   -7.2497E+04  setid=       0
 node=    55 local x,y,z forces =    1.2205E+04    2.4872E+03   -7.9804E+04  setid=       0
 node=    56 local x,y,z forces =    1.7332E+04    1.2653E+03   -5.0205E+04  setid=       0
 node=    57 local x,y,z forces =   -1.7254E+04    2.7912E+03   -4.9824E+04  setid=       0
 node=    58 local x,y,z forces =   -1.2134E+04    5.5133E+03   -7.9235E+04  setid=       0
 node=    59 local x,y,z forces =   -6.5953E+03    5.4599E+03   -7.2068E+04  setid=       0
 node=    60 local x,y,z forces =   -9.1624E+00    5.4686E+03   -7.4787E+04  setid=       0
 node=    61 local x,y,z forces =    6.5851E+03    5.4656E+03   -7.2145E+04  setid=       0
 node=    62 local x,y,z forces =    1.2135E+04    5.5249E+03   -7.9404E+04  setid=       0
 node=    63 local x,y,z forces =    1.7289E+04    2.7988E+03   -4.9954E+04  setid=       0
 node=    64 local x,y,z forces =   -1.7290E+04    3.9972E+03   -5.0507E+04  setid=       0
 node=    65 local x,y,z forces =   -1.2012E+04    7.9089E+03   -8.0783E+04  setid=       0
 node=    66 local x,y,z forces =   -6.4696E+03    7.8795E+03   -7.3700E+04  setid=       0
 node=    67 local x,y,z forces =   -1.0480E+01    7.9253E+03   -7.6367E+04  setid=       0
 node=    68 local x,y,z forces =    6.4567E+03    7.8876E+03   -7.3777E+04  setid=       0
 node=    69 local x,y,z forces =    1.2011E+04    7.9256E+03   -8.0951E+04  setid=       0
 node=    70 local x,y,z forces =    1.7324E+04    4.0083E+03   -5.0634E+04  setid=       0
 node=    71 local x,y,z forces =   -1.7236E+04    6.6478E+03   -4.9964E+04  setid=       0
 node=    72 local x,y,z forces =   -1.1833E+04    1.3292E+04   -7.9830E+04  setid=       0
 node=    73 local x,y,z forces =   -6.2851E+03    1.3445E+04   -7.2687E+04  setid=       0
 node=    74 local x,y,z forces =   -1.2682E+01    1.3587E+04   -7.5205E+04  setid=       0
 node=    75 local x,y,z forces =    6.2675E+03    1.3459E+04   -7.2762E+04  setid=       0
 node=    76 local x,y,z forces =    1.1829E+04    1.3319E+04   -7.9991E+04  setid=       0
 node=    77 local x,y,z forces =    1.7268E+04    6.6659E+03   -5.0085E+04  setid=       0
 node=    78 local x,y,z forces =   -1.8241E+04    7.3838E+03   -5.5822E+04  setid=       0
 node=    79 local x,y,z forces =   -1.1766E+04    1.4830E+04   -9.1734E+04  setid=       0
 node=    80 local x,y,z forces =   -6.2012E+03    1.5054E+04   -8.4742E+04  setid=       0
 node=    81 local x,y,z forces =   -1.7882E+01    1.5198E+04   -8.7198E+04  setid=       0
 node=    82 local x,y,z forces =    6.1728E+03    1.5069E+04   -8.4827E+04  setid=       0
 node=    83 local x,y,z forces =    1.1753E+04    1.4860E+04   -9.1911E+04  setid=       0
 node=    84 local x,y,z forces =    1.8269E+04    7.4036E+03   -5.5949E+04  setid=       0
 node=    85 local x,y,z forces =   -9.7962E+03    1.2288E+04   -3.4654E+04  setid=       0
 node=    86 local x,y,z forces =   -5.9194E+03    2.3385E+04   -5.9488E+04  setid=       0
 node=    87 local x,y,z forces =   -3.1154E+03    2.2699E+04   -5.6204E+04  setid=       0
 node=    88 local x,y,z forces =   -1.1114E+01    2.2947E+04   -5.7490E+04  setid=       0
 node=    89 local x,y,z forces =    3.0967E+03    2.2721E+04   -5.6260E+04  setid=       0
 node=    90 local x,y,z forces =    5.9090E+03    2.3430E+04   -5.9601E+04  setid=       0
 node=    91 local x,y,z forces =    9.8102E+03    1.2317E+04   -3.4731E+04  setid=       0
 node=  4551 local x,y,z forces =   -9.7962E+03   -1.2288E+04    0.0000E+00  setid=       0
 node=  4552 local x,y,z forces =   -5.9194E+03   -2.3385E+04    0.0000E+00  setid=       0
 node=  4553 local x,y,z forces =   -3.1154E+03   -2.2699E+04    0.0000E+00  setid=       0
 node=  4554 local x,y,z forces =   -1.1114E+01   -2.2947E+04    0.0000E+00  setid=       0
 node=  4555 local x,y,z forces =    3.0967E+03   -2.2721E+04    0.0000E+00  setid=       0
 node=  4556 local x,y,z forces =    5.9090E+03   -2.3430E+04    0.0000E+00  setid=       0
 node=  4557 local x,y,z forces =    9.8102E+03   -1.2317E+04    0.0000E+00  setid=       0
 node=  4558 local x,y,z forces =   -1.8241E+04   -7.3838E+03    0.0000E+00  setid=       0
 node=  4559 local x,y,z forces =   -1.1766E+04   -1.4830E+04    0.0000E+00  setid=       0
 node=  4560 local x,y,z forces =   -6.2012E+03   -1.5054E+04    0.0000E+00  setid=       0
 node=  4561 local x,y,z forces =   -1.7882E+01   -1.5198E+04    0.0000E+00  setid=       0
 node=  4562 local x,y,z forces =    6.1728E+03   -1.5069E+04    0.0000E+00  setid=       0
 node=  4563 local x,y,z forces =    1.1753E+04   -1.4860E+04    0.0000E+00  setid=       0
 node=  4564 local x,y,z forces =    1.8269E+04   -7.4036E+03    0.0000E+00  setid=       0
 node=  4565 local x,y,z forces =   -1.7236E+04   -6.6478E+03    0.0000E+00  setid=       0
 node=  4566 local x,y,z forces =   -1.1833E+04   -1.3292E+04    0.0000E+00  setid=       0
 node=  4567 local x,y,z forces =   -6.2851E+03   -1.3445E+04    0.0000E+00  setid=       0
 node=  4568 local x,y,z forces =   -1.2682E+01   -1.3587E+04    0.0000E+00  setid=       0
 node=  4569 local x,y,z forces =    6.2675E+03   -1.3459E+04    0.0000E+00  setid=       0
 node=  4570 local x,y,z forces =    1.1829E+04   -1.3319E+04    0.0000E+00  setid=       0
 node=  4571 local x,y,z forces =    1.7268E+04   -6.6659E+03    0.0000E+00  setid=       0
 node=  4572 local x,y,z forces =   -1.7290E+04   -3.9972E+03    0.0000E+00  setid=       0
 node=  4573 local x,y,z forces =   -1.2012E+04   -7.9089E+03    0.0000E+00  setid=       0
 node=  4574 local x,y,z forces =   -6.4696E+03   -7.8795E+03    0.0000E+00  setid=       0
 node=  4575 local x,y,z forces =   -1.0480E+01   -7.9253E+03    0.0000E+00  setid=       0
 node=  4576 local x,y,z forces =    6.4567E+03   -7.8876E+03    0.0000E+00  setid=       0
 node=  4577 local x,y,z forces =    1.2011E+04   -7.9256E+03    0.0000E+00  setid=       0
 node=  4578 local x,y,z forces =    1.7324E+04   -4.0083E+03    0.0000E+00  setid=       0
 node=  4579 local x,y,z forces =   -1.7254E+04   -2.7912E+03    0.0000E+00  setid=       0
 node=  4580 local x,y,z forces =   -1.2134E+04   -5.5133E+03    0.0000E+00  setid=       0
 node=  4581 local x,y,z forces =   -6.5953E+03   -5.4599E+03    0.0000E+00  setid=       0
 node=  4582 local x,y,z forces =   -9.1624E+00   -5.4686E+03    0.0000E+00  setid=       0
 node=  4583 local x,y,z forces =    6.5851E+03   -5.4656E+03    0.0000E+00  setid=       0
 node=  4584 local x,y,z forces =    1.2135E+04   -5.5249E+03    0.0000E+00  setid=       0
 node=  4585 local x,y,z forces =    1.7289E+04   -2.7988E+03    0.0000E+00  setid=       0
 node=  4586 local x,y,z forces =   -1.7296E+04   -1.2619E+03    0.0000E+00  setid=       0
 node=  4587 local x,y,z forces =   -1.2203E+04   -2.4819E+03    0.0000E+00  setid=       0
 node=  4588 local x,y,z forces =   -6.6623E+03   -2.4405E+03    0.0000E+00  setid=       0
 node=  4589 local x,y,z forces =   -8.5416E+00   -2.4383E+03    0.0000E+00  setid=       0
 node=  4590 local x,y,z forces =    6.6535E+03   -2.4430E+03    0.0000E+00  setid=       0
 node=  4591 local x,y,z forces =    1.2205E+04   -2.4872E+03    0.0000E+00  setid=       0
 node=  4592 local x,y,z forces =    1.7332E+04   -1.2653E+03    0.0000E+00  setid=       0
 node=  4593 local x,y,z forces =   -1.7288E+04   -4.6748E-10    0.0000E+00  setid=       0
 node=  4594 local x,y,z forces =   -1.2223E+04   -1.4734E-09    0.0000E+00  setid=       0
 node=  4595 local x,y,z forces =   -6.6827E+03   -1.0623E-09    0.0000E+00  setid=       0
 node=  4596 local x,y,z forces =   -8.3344E+00   -1.3461E-10    0.0000E+00  setid=       0
 node=  4597 local x,y,z forces =    6.6743E+03    1.7280E-10    0.0000E+00  setid=       0
 node=  4598 local x,y,z forces =    1.2226E+04    4.2382E-10    0.0000E+00  setid=       0
 node=  4599 local x,y,z forces =    1.7325E+04    1.9281E-10    0.0000E+00  setid=       0
 node=  4600 local x,y,z forces =   -1.7296E+04    1.2619E+03    0.0000E+00  setid=       0
 node=  4601 local x,y,z forces =   -1.2203E+04    2.4819E+03    0.0000E+00  setid=       0
 node=  4602 local x,y,z forces =   -6.6623E+03    2.4405E+03    0.0000E+00  setid=       0
 node=  4603 local x,y,z forces =   -8.5416E+00    2.4383E+03    0.0000E+00  setid=       0
 node=  4604 local x,y,z forces =    6.6535E+03    2.4430E+03    0.0000E+00  setid=       0
 node=  4605 local x,y,z forces =    1.2205E+04    2.4872E+03    0.0000E+00  setid=       0
 node=  4606 local x,y,z forces =    1.7332E+04    1.2653E+03    0.0000E+00  setid=       0
 node=  4607 local x,y,z forces =   -1.7254E+04    2.7912E+03    0.0000E+00  setid=       0
 node=  4608 local x,y,z forces =   -1.2134E+04    5.5133E+03    0.0000E+00  setid=       0
 node=  4609 local x,y,z forces =   -6.5953E+03    5.4599E+03    0.0000E+00  setid=       0
 node=  4610 local x,y,z forces =   -9.1624E+00    5.4686E+03    0.0000E+00  setid=       0
 node=  4611 local x,y,z forces =    6.5851E+03    5.4656E+03    0.0000E+00  setid=       0
 node=  4612 local x,y,z forces =    1.2135E+04    5.5249E+03    0.0000E+00  setid=       0
 node=  4613 local x,y,z forces =    1.7289E+04    2.7988E+03    0.0000E+00  setid=       0
 node=  4614 local x,y,z forces =   -1.7290E+04    3.9972E+03    0.0000E+00  setid=       0
 node=  4615 local x,y,z forces =   -1.2012E+04    7.9089E+03    0.0000E+00  setid=       0
 node=  4616 local x,y,z forces =   -6.4696E+03    7.8795E+03    0.0000E+00  setid=       0
 node=  4617 local x,y,z forces =   -1.0480E+01    7.9253E+03    0.0000E+00  setid=       0
 node=  4618 local x,y,z forces =    6.4567E+03    7.8876E+03    0.0000E+00  setid=       0
 node=  4619 local x,y,z forces =    1.2011E+04    7.9256E+03    0.0000E+00  setid=       0
 node=  4620 local x,y,z forces =    1.7324E+04    4.0083E+03    0.0000E+00  setid=       0
 node=  4621 local x,y,z forces =   -1.7236E+04    6.6478E+03    0.0000E+00  setid=       0
 node=  4622 local x,y,z forces =   -1.1833E+04    1.3292E+04    0.0000E+00  setid=       0
 node=  4623 local x,y,z forces =   -6.2851E+03    1.3445E+04    0.0000E+00  setid=       0
 node=  4624 local x,y,z forces =   -1.2682E+01    1.3587E+04    0.0000E+00  setid=       0
 node=  4625 local x,y,z forces =    6.2675E+03    1.3459E+04    0.0000E+00  setid=       0
 node=  4626 local x,y,z forces =    1.1829E+04    1.3319E+04    0.0000E+00  setid=       0
 node=  4627 local x,y,z forces =    1.7268E+04    6.6659E+03    0.0000E+00  setid=       0
 node=  4628 local x,y,z forces =   -1.8241E+04    7.3838E+03    0.0000E+00  setid=       0
 node=  4629 local x,y,z forces =   -1.1766E+04    1.4830E+04    0.0000E+00  setid=       0
 node=  4630 local x,y,z forces =   -6.2012E+03    1.5054E+04    0.0000E+00  setid=       0
 node=  4631 local x,y,z forces =   -1.7882E+01    1.5198E+04    0.0000E+00  setid=       0
 node=  4632 local x,y,z forces =    6.1728E+03    1.5069E+04    0.0000E+00  setid=       0
 node=  4633 local x,y,z forces =    1.1753E+04    1.4860E+04    0.0000E+00  setid=       0
 node=  4634 local x,y,z forces =    1.8269E+04    7.4036E+03    0.0000E+00  setid=       0
 node=  4635 local x,y,z forces =   -9.7962E+03    1.2288E+04    0.0000E+00  setid=       0
 node=  4636 local x,y,z forces =   -5.9194E+03    2.3385E+04    0.0000E+00  setid=       0
 node=  4637 local x,y,z forces =   -3.1154E+03    2.2699E+04    0.0000E+00  setid=       0
 node=  4638 local x,y,z forces =   -1.1114E+01    2.2947E+04    0.0000E+00  setid=       0
 node=  4639 local x,y,z forces =    3.0967E+03    2.2721E+04    0.0000E+00  setid=       0
 node=  4640 local x,y,z forces =    5.9090E+03    2.3430E+04    0.0000E+00  setid=       0
 node=  4641 local x,y,z forces =    9.8102E+03    1.2317E+04    0.0000E+00  setid=       0
             force resultants   =   -1.0084E-01    2.7649E-10   -6.1471E+06
 output at time =   1.00000E-03
 node=     1 local x,y,z forces =   -1.9592E+04   -2.4573E+04   -6.9365E+04  setid=       0
 node=     2 local x,y,z forces =   -1.1838E+04   -4.6765E+04   -1.1906E+05  setid=       0
 node=     3 local x,y,z forces =   -6.2335E+03   -4.5393E+04   -1.1249E+05  setid=       0
 node=     4 local x,y,z forces =   -2.3400E+01   -4.5889E+04   -1.1507E+05  setid=       0
 node=     5 local x,y,z forces =    6.1941E+03   -4.5440E+04   -1.1260E+05  setid=       0
 node=     6 local x,y,z forces =    1.1817E+04   -4.6859E+04   -1.1930E+05  setid=       0
 node=     7 local x,y,z forces =    1.9622E+04   -2.4634E+04   -6.9528E+04  setid=       0
 node=     8 local x,y,z forces =   -3.6480E+04   -1.4763E+04   -1.1172E+05  setid=       0
 node=     9 local x,y,z forces =   -2.3532E+04   -2.9653E+04   -1.8357E+05  setid=       0
 node=    10 local x,y,z forces =   -1.2407E+04   -3.0102E+04   -1.6957E+05  setid=       0
 node=    11 local x,y,z forces =   -3.7638E+01   -3.0390E+04   -1.7449E+05  setid=       0
 node=    12 local x,y,z forces =    1.2347E+04   -3.0134E+04   -1.6975E+05  setid=       0
 node=    13 local x,y,z forces =    2.3504E+04   -2.9716E+04   -1.8395E+05  setid=       0
 node=    14 local x,y,z forces =    3.6540E+04   -1.4805E+04   -1.1199E+05  setid=       0
 node=    15 local x,y,z forces =   -3.4470E+04   -1.3297E+04   -9.9990E+04  setid=       0
 node=    16 local x,y,z forces =   -2.3666E+04   -2.6587E+04   -1.5973E+05  setid=       0
 node=    17 local x,y,z forces =   -1.2574E+04   -2.6895E+04   -1.4543E+05  setid=       0
 node=    18 local x,y,z forces =   -2.6680E+01   -2.7179E+04   -1.5047E+05  setid=       0
 node=    19 local x,y,z forces =    1.2537E+04   -2.6923E+04   -1.4559E+05  setid=       0
 node=    20 local x,y,z forces =    2.3657E+04   -2.6644E+04   -1.6007E+05  setid=       0
 node=    21 local x,y,z forces =    3.4535E+04   -1.3335E+04   -1.0024E+05  setid=       0
 node=    22 local x,y,z forces =   -3.4577E+04   -7.9949E+03   -1.0107E+05  setid=       0
 node=    23 local x,y,z forces =   -2.4022E+04   -1.5818E+04   -1.6164E+05  setid=       0
 node=    24 local x,y,z forces =   -1.2943E+04   -1.5759E+04   -1.4746E+05  setid=       0
 node=    25 local x,y,z forces =   -2.2037E+01   -1.5851E+04   -1.5280E+05  setid=       0
 node=    26 local x,y,z forces =    1.2916E+04   -1.5776E+04   -1.4762E+05  setid=       0
 node=    27 local x,y,z forces =    2.4021E+04   -1.5853E+04   -1.6199E+05  setid=       0
 node=    28 local x,y,z forces =    3.4648E+04   -8.0181E+03   -1.0134E+05  setid=       0
 node=    29 local x,y,z forces =   -3.4504E+04   -5.5835E+03   -9.9708E+04  setid=       0
 node=    30 local x,y,z forces =   -2.4267E+04   -1.1028E+04   -1.5854E+05  setid=       0
 node=    31 local x,y,z forces =   -1.3194E+04   -1.0921E+04   -1.4419E+05  setid=       0
 node=    32 local x,y,z forces =   -1.9249E+01   -1.0939E+04   -1.4963E+05  setid=       0
 node=    33 local x,y,z forces =    1.3173E+04   -1.0933E+04   -1.4435E+05  setid=       0
 node=    34 local x,y,z forces =    2.4270E+04   -1.1053E+04   -1.5889E+05  setid=       0
 node=    35 local x,y,z forces =    3.4578E+04   -5.5994E+03   -9.9979E+04  setid=       0
 node=    36 local x,y,z forces =   -3.4588E+04   -2.5241E+03   -1.0021E+05  setid=       0
 node=    37 local x,y,z forces =   -2.4404E+04   -4.9642E+03   -1.5933E+05  setid=       0
 node=    38 local x,y,z forces =   -1.3328E+04   -4.8812E+03   -1.4489E+05  setid=       0
 node=    39 local x,y,z forces =   -1.7938E+01   -4.8768E+03   -1.5039E+05  setid=       0
 node=    40 local x,y,z forces =    1.3310E+04   -4.8865E+03   -1.4506E+05  setid=       0
 node=    41 local x,y,z forces =    2.4409E+04   -4.9753E+03   -1.5969E+05  setid=       0
 node=    42 local x,y,z forces =    3.4664E+04   -2.5314E+03   -1.0048E+05  setid=       0
 node=    43 local x,y,z forces =   -3.4573E+04    1.4552E-11   -9.9782E+04  setid=       0
 node=    44 local x,y,z forces =   -2.4445E+04    3.6380E-12   -1.5841E+05  setid=       0
 node=    45 local x,y,z forces =   -1.3369E+04   -1.4552E-11   -1.4391E+05  setid=       0
 node=    46 local x,y,z forces =   -1.7498E+01    0.0000E+00   -1.4942E+05  setid=       0
 node=    47 local x,y,z forces =    1.3351E+04   -2.5466E-11   -1.4407E+05  setid=       0
 node=    48 local x,y,z forces =    2.4451E+04   -2.9104E-11   -1.5877E+05  setid=       0
 node=    49 local x,y,z forces =    3.4650E+04    0.0000E+00   -1.0006E+05  setid=       0
 node=    50 local x,y,z forces =   -3.4588E+04    2.5241E+03   -1.0021E+05  setid=       0
 node=    51 local x,y,z forces =   -2.4404E+04    4.9642E+03   -1.5933E+05  setid=       0
 node=    52 local x,y,z forces =   -1.3328E+04    4.8812E+03   -1.4489E+05  setid=       0
 node=    53 local x,y,z forces =   -1.7938E+01    4.8768E+03   -1.5039E+05  setid=       0
 node=    54 local x,y,z forces =    1.3310E+04    4.8865E+03   -1.4506E+05  setid=       0
 node=    55 local x,y,z forces =    2.4409E+04    4.9753E+03   -1.5969E+05  setid=       0
 node=    56 local x,y,z forces =    3.4664E+04    2.5314E+03   -1.0048E+05  setid=       0
 node=    57 local x,y,z forces =   -3.4504E+04    5.5835E+03   -9.9708E+04  setid=       0
 node=    58 local x,y,z forces =   -2.4267E+04    1.1028E+04   -1.5854E+05  setid=       0
 node=    59 local x,y,z forces =   -1.3194E+04    1.0921E+04   -1.4419E+05  setid=       0
 node=    60 local x,y,z forces =   -1.9249E+01    1.0939E+04   -1.4963E+05  setid=       0
 node=    61 local x,y,z forces =    1.3173E+04    1.0933E+04   -1.4435E+05  setid=       0
 node=    62 local x,y,z forces =    2.4270E+04    1.1053E+04   -1.5889E+05  setid=       0
 node=    63 local x,y,z forces =    3.4578E+04    5.5994E+03   -9.9979E+04  setid=       0
 node=    64 local x,y,z forces =   -3.4577E+04    7.9949E+03   -1.0107E+05  setid=       0
 node=    65 local x,y,z forces =   -2.4022E+04    1.5818E+04   -1.6164E+05  setid=       0
 node=    66 local x,y,z forces =   -1.2943E+04    1.5759E+04   -1.4746E+05  setid=       0
 node=    67 local x,y,z forces =   -2.2037E+01    1.5851E+04   -1.5280E+05  setid=       0
 node=    68 local x,y,z forces =    1.2916E+04    1.5776E+04   -1.4762E+05  setid=       0
 node=    69 local x,y,z forces =    2.4021E+04    1.5853E+04   -1.6199E+05  setid=       0
 node=    70 local x,y,z forces =    3.4648E+04    8.0181E+03   -1.0134E+05  setid=       0
 node=    71 local x,y,z forces =   -3.4470E+04    1.3297E+04   -9.9990E+04  setid=       0
 node=    72 local x,y,z forces =   -2.3666E+04    2.6587E+04   -1.5973E+05  setid=       0
 node=    73 local x,y,z forces =   -1.2574E+04    2.6895E+04   -1.4543E+05  setid=       0
 node=    74 local x,y,z forces =   -2.6680E+01    2.7179E+04   -1.5047E+05  setid=       0
 node=    75 local x,y,z forces =    1.2537E+04    2.6923E+04   -1.4559E+05  setid=       0
 node=    76 local x,y,z forces =    2.3657E+04    2.6644E+04   -1.6007E+05  setid=       0
 node=    77 local x,y,z forces =    3.4535E+04    1.3335E+04   -1.0024E+05  setid=       0
 node=    78 local x,y,z forces =   -3.6480E+04    1.4763E+04   -1.1172E+05  setid=       0
 node=    79 local x,y,z forces =   -2.3532E+04    2.9653E+04   -1.8357E+05  setid=       0
 node=    80 local x,y,z forces =   -1.2407E+04    3.0102E+04   -1.6957E+05  setid=       0
 node=    81 local x,y,z forces =   -3.7638E+01    3.0390E+04   -1.7449E+05  setid=       0
 node=    82 local x,y,z forces =    1.2347E+04    3.0134E+04   -1.6975E+05  setid=       0
 node=    83 local x,y,z forces =    2.3504E+04    2.9716E+04   -1.8395E+05  setid=       0
 node=    84 local x,y,z forces =    3.6540E+04    1.4805E+04   -1.1199E+05  setid=       0
 node=    85 local x,y,z forces =   -1.9592E+04    2.4573E+04   -6.9365E+04  setid=       0
 node=    86 local x,y,z forces =   -1.1838E+04    4.6765E+04   -1.1906E+05  setid=       0
 node=    87 local x,y,z forces =   -6.2335E+03    4.5393E+04   -1.1249E+05  setid=       0
 node=    88 local x,y,z forces =   -2.3400E+01    4.5889E+04   -1.1507E+05  setid=       0
 node=    89 local x,y,z forces =    6.1941E+03    4.5440E+04   -1.1260E+05  setid=       0
 node=    90 local x,y,z forces =    1.1817E+04    4.6859E+04   -1.1930E+05  setid=       0
 node=    91 local x,y,z forces =    1.9622E+04    2.4634E+04   -6.9528E+04  setid=       0
 node=  4551 local x,y,z forces =   -1.9592E+04   -2.4573E+04    0.0000E+00  setid=       0
 node=  4552 local x,y,z forces =   -1.1838E+04   -4.6765E+04    0.0000E+00  setid=       0
 node=  4553 local x,y,z forces =   -6.2335E+03   -4.5393E+04    0.0000E+00  setid=       0
 node=  4554 local x,y,z forces =   -2.3400E+01   -4.5889E+04    0.0000E+00  setid=       0
 node=  4555 local x,y,z forces =    6.1941E+03   -4.5440E+04    0.0000E+00  setid=       0
 node=  4556 local x,y,z forces =    1.1817E+04   -4.6859E+04    0.0000E+00  setid=       0
 node=  4557 local x,y,z forces =    1.9622E+04   -2.4634E+04    0.0000E+00  setid=       0
 node=  4558 local x,y,z forces =   -3.6480E+04   -1.4763E+04    0.0000E+00  setid=       0
 node=  4559 local x,y,z forces =   -2.3532E+04   -2.9653E+04    0.0000E+00  setid=       0
 node=  4560 local x,y,z forces =   -1.2407E+04   -3.0102E+04    0.0000E+00  setid=       0
 node=  4561 local x,y,z forces =   -3.7638E+01   -3.0390E+04    0.0000E+00  setid=       0
 node=  4562 local x,y,z forces =    1.2347E+04   -3.0134E+04    0.0000E+00  setid=       0
 node=  4563 local x,y,z forces =    2.3504E+04   -2.9716E+04    0.0000E+00  setid=       0
 node=  4564 local x,y,z forces =    3.6540E+04   -1.4805E+04    0.0000E+00  setid=       0
 node=  4565 local x,y,z forces =   -3.4470E+04   -1.3297E+04    0.0000E+00  setid=       0
 node=  4566 local x,y,z forces =   -2.3666E+04   -2.6587E+04    0.0000E+00  setid=       0
 node=  4567 local x,y,z forces =   -1.2574E+04   -2.6895E+04    0.0000E+00  setid=       0
 node=  4568 local x,y,z forces =   -2.6680E+01   -2.7179E+04    0.0000E+00  setid=       0
 node=  4569 local x,y,z forces =    1.2537E+04   -2.6923E+04    0.0000E+00  setid=       0
 node=  4570 local x,y,z forces =    2.3657E+04   -2.6644E+04    0.0000E+00  setid=       0
 node=  4571 local x,y,z forces =    3.4535E+04   -1.3335E+04    0.0000E+00  setid=       0
 node=  4572 local x,y,z forces =   -3.4577E+04   -7.9949E+03    0.0000E+00  setid=       0
 node=  4573 local x,y,z forces =   -2.4022E+04   -1.5818E+04    0.0000E+00  setid=       0
 node=  4574 local x,y,z forces =   -1.2943E+04   -1.5759E+04    0.0000E+00  setid=       0
 node=  4575 local x,y,z forces =   -2.2037E+01   -1.5851E+04    0.0000E+00  setid=       0
 node=  4576 local x,y,z forces =    1.2916E+04   -1.5776E+04    0.0000E+00  setid=       0
 node=  4577 local x,y,z forces =    2.4021E+04   -1.5853E+04    0.0000E+00  setid=       0
 node=  4578 local x,y,z forces =    3.4648E+04   -8.0181E+03    0.0000E+00  setid=       0
 node=  4579 local x,y,z forces =   -3.4504E+04   -5.5835E+03    0.0000E+00  setid=       0
 node=  4580 local x,y,z forces =   -2.4267E+04   -1.1028E+04    0.0000E+00  setid=       0
 node=  4581 local x,y,z forces =   -1.3194E+04   -1.0921E+04    0.0000E+00  setid=       0
 node=  4582 local x,y,z forces =   -1.9249E+01   -1.0939E+04    0.0000E+00  setid=       0
 node=  4583 local x,y,z forces =    1.3173E+04   -1.0933E+04    0.0000E+00  setid=       0
 node=  4584 local x,y,z forces =    2.4270E+04   -1.1053E+04    0.0000E+00  setid=       0
 node=  4585 local x,y,z forces =    3.4578E+04   -5.5994E+03    0.0000E+00  setid=       0
 node=  4586 local x,y,z forces =   -3.4588E+04   -2.5241E+03    0.0000E+00  setid=       0
 node=  4587 local x,y,z forces =   -2.4404E+04   -4.9642E+03    0.0000E+00  setid=       0
 node=  4588 local x,y,z forces =   -1.3328E+04   -4.8812E+03    0.0000E+00  setid=       0
 node=  4589 local x,y,z forces =   -1.7938E+01   -4.8768E+03    0.0000E+00  setid=       0
 node=  4590 local x,y,z forces =    1.3310E+04   -4.8865E+03    0.0000E+00  setid=       0
 node=  4591 local x,y,z forces =    2.4409E+04   -4.9753E+03    0.0000E+00  setid=       0
 node=  4592 local x,y,z forces =    3.4664E+04   -2.5314E+03    0.0000E+00  setid=       0
 node=  4593 local x,y,z forces =   -3.4573E+04    1.6371E-10    0.0000E+00  setid=       0
 node=  4594 local x,y,z forces =   -2.4445E+04    2.9468E-10    0.0000E+00  setid=       0
 node=  4595 local x,y,z forces =   -1.3369E+04    4.3656E-10    0.0000E+00  setid=       0
 node=  4596 local x,y,z forces =   -1.7498E+01    8.0036E-11    0.0000E+00  setid=       0
 node=  4597 local x,y,z forces =    1.3351E+04   -4.1837E-10    0.0000E+00  setid=       0
 node=  4598 local x,y,z forces =    2.4451E+04   -6.6211E-10    0.0000E+00  setid=       0
 node=  4599 local x,y,z forces =    3.4650E+04   -4.8021E-10    0.0000E+00  setid=       0
 node=  4600 local x,y,z forces =   -3.4588E+04    2.5241E+03    0.0000E+00  setid=       0
 node=  4601 local x,y,z forces =   -2.4404E+04    4.9642E+03    0.0000E+00  setid=       0
 node=  4602 local x,y,z forces =   -1.3328E+04    4.8812E+03    0.0000E+00  setid=       0
 node=  4603 local x,y,z forces =   -1.7938E+01    4.8768E+03    0.0000E+00  setid=       0
 node=  4604 local x,y,z forces =    1.3310E+04    4.8865E+03    0.0000E+00  setid=       0
 node=  4605 local x,y,z forces =    2.4409E+04    4.9753E+03    0.0000E+00  setid=       0
 node=  4606 local x,y,z forces =    3.4664E+04    2.5314E+03    0.0000E+00  setid=       0
 node=  4607 local x,y,z forces =   -3.4504E+04    5.5835E+03    0.0000E+00  setid=       0
 node=  4608 local x,y,z forces =   -2.4267E+04    1.1028E+04    0.0000E+00  setid=       0
 node=  4609 local x,y,z forces =   -1.3194E+04    1.0921E+04    0.0000E+00  setid=       0
 node=  4610 local x,y,z forces =   -1.9249E+01    1.0939E+04    0.0000E+00  setid=       0
 node=  4611 local x,y,z forces =    1.3173E+04    1.0933E+04    0.0000E+00  setid=       0
 node=  4612 local x,y,z forces =    2.4270E+04    1.1053E+04    0.0000E+00  setid=       0
 node=  4613 local x,y,z forces =    3.4578E+04    5.5994E+03    0.0000E+00  setid=       0
 node=  4614 local x,y,z forces =   -3.4577E+04    7.9949E+03    0.0000E+00  setid=       0
 node=  4615 local x,y,z forces =   -2.4022E+04    1.5818E+04    0.0000E+00  setid=       0
 node=  4616 local x,y,z forces =   -1.2943E+04    1.5759E+04    0.0000E+00  setid=       0
 node=  4617 local x,y,z forces =   -2.2037E+01    1.5851E+04    0.0000E+00  setid=       0
 node=  4618 local x,y,z forces =    1.2916E+04    1.5776E+04    0.0000E+00  setid=       0
 node=  4619 local x,y,z forces =    2.4021E+04    1.5853E+04    0.0000E+00  setid=       0
 node=  4620 local x,y,z forces =    3.4648E+04    8.0181E+03    0.0000E+00  setid=       0
 node=  4621 local x,y,z forces =   -3.4470E+04    1.3297E+04    0.0000E+00  setid=       0
 node=  4622 local x,y,z forces =   -2.3666E+04    2.6587E+04    0.0000E+00  setid=       0
 node=  4623 local x,y,z forces =   -1.2574E+04    2.6895E+04    0.0000E+00  setid=       0
 node=  4624 local x,y,z forces =   -2.6680E+01    2.7179E+04    0.0000E+00  setid=       0
 node=  4625 local x,y,z forces =    1.2537E+04    2.6923E+04    0.0000E+00  setid=       0
 node=  4626 local x,y,z forces =    2.3657E+04    2.6644E+04    0.0000E+00  setid=       0
 node=  4627 local x,y,z forces =    3.4535E+04    1.3335E+04    0.0000E+00  setid=       0
 node=  4628 local x,y,z forces =   -3.6480E+04    1.4763E+04    0.0000E+00  setid=       0
 node=  4629 local x,y,z forces =   -2.3532E+04    2.9653E+04    0.0000E+00  setid=       0
 node=  4630 local x,y,z forces =   -1.2407E+04    3.0102E+04    0.0000E+00  setid=       0
 node=  4631 local x,y,z forces =   -3.7638E+01    3.0390E+04    0.0000E+00  setid=       0
 node=  4632 local x,y,z forces =    1.2347E+04    3.0134E+04    0.0000E+00  setid=       0
 node=  4633 local x,y,z forces =    2.3504E+04    2.9716E+04    0.0000E+00  setid=       0
 node=  4634 local x,y,z forces =    3.6540E+04    1.4805E+04    0.0000E+00  setid=       0
 node=  4635 local x,y,z forces =   -1.9592E+04    2.4573E+04    0.0000E+00  setid=       0
 node=  4636 local x,y,z forces =   -1.1838E+04    4.6765E+04    0.0000E+00  setid=       0
 node=  4637 local x,y,z forces =   -6.2335E+03    4.5393E+04    0.0000E+00  setid=       0
 node=  4638 local x,y,z forces =   -2.3400E+01    4.5889E+04    0.0000E+00  setid=       0
 node=  4639 local x,y,z forces =    6.1941E+03    4.5440E+04    0.0000E+00  setid=       0
 node=  4640 local x,y,z forces =    1.1817E+04    4.6859E+04    0.0000E+00  setid=       0
 node=  4641 local x,y,z forces =    1.9622E+04    2.4634E+04    0.0000E+00  setid=       0
             force resultants   =   -5.4992E-01   -5.7771E-09   -1.2301E+07
 output at time =   1.50000E-03
 node=     1 local x,y,z forces =   -2.9388E+04   -3.6855E+04   -1.0413E+05  setid=       0
 node=     2 local x,y,z forces =   -1.7757E+04   -7.0139E+04   -1.7873E+05  setid=       0
 node=     3 local x,y,z forces =   -9.3546E+03   -6.8081E+04   -1.6885E+05  setid=       0
 node=     4 local x,y,z forces =   -3.7092E+01   -6.8828E+04   -1.7273E+05  setid=       0
 node=     5 local x,y,z forces =    9.2921E+03   -6.8155E+04   -1.6904E+05  setid=       0
 node=     6 local x,y,z forces =    1.7723E+04   -7.0288E+04   -1.7910E+05  setid=       0
 node=     7 local x,y,z forces =    2.9434E+04   -3.6952E+04   -1.0439E+05  setid=       0
 node=     8 local x,y,z forces =   -5.4717E+04   -2.2138E+04   -1.6770E+05  setid=       0
 node=     9 local x,y,z forces =   -3.5298E+04   -4.4468E+04   -2.7552E+05  setid=       0
 node=    10 local x,y,z forces =   -1.8618E+04   -4.5144E+04   -2.5449E+05  setid=       0
 node=    11 local x,y,z forces =   -5.9646E+01   -4.5575E+04   -2.6189E+05  setid=       0
 node=    12 local x,y,z forces =    1.8523E+04   -4.5193E+04   -2.5477E+05  setid=       0
 node=    13 local x,y,z forces =    3.5254E+04   -4.4567E+04   -2.7611E+05  setid=       0
 node=    14 local x,y,z forces =    5.4812E+04   -2.2203E+04   -1.6812E+05  setid=       0
 node=    15 local x,y,z forces =   -5.1700E+04   -1.9949E+04   -1.5008E+05  setid=       0
 node=    16 local x,y,z forces =   -3.5497E+04   -3.9885E+04   -2.3971E+05  setid=       0
 node=    17 local x,y,z forces =   -1.8867E+04   -4.0348E+04   -2.1823E+05  setid=       0
 node=    18 local x,y,z forces =   -4.2260E+01   -4.0775E+04   -2.2581E+05  setid=       0
 node=    19 local x,y,z forces =    1.8809E+04   -4.0392E+04   -2.1848E+05  setid=       0
 node=    20 local x,y,z forces =    3.5484E+04   -3.9976E+04   -2.4024E+05  setid=       0
 node=    21 local x,y,z forces =    5.1803E+04   -2.0009E+04   -1.5048E+05  setid=       0
 node=    22 local x,y,z forces =   -5.1860E+04   -1.1993E+04   -1.5170E+05  setid=       0
 node=    23 local x,y,z forces =   -3.6031E+04   -2.3728E+04   -2.4257E+05  setid=       0
 node=    24 local x,y,z forces =   -1.9420E+04   -2.3639E+04   -2.2127E+05  setid=       0
 node=    25 local x,y,z forces =   -3.4888E+01   -2.3777E+04   -2.2930E+05  setid=       0
 node=    26 local x,y,z forces =    1.9377E+04   -2.3666E+04   -2.2153E+05  setid=       0
 node=    27 local x,y,z forces =    3.6029E+04   -2.3783E+04   -2.4313E+05  setid=       0
 node=    28 local x,y,z forces =    5.1973E+04   -1.2030E+04   -1.5212E+05  setid=       0
 node=    29 local x,y,z forces =   -5.1750E+04   -8.3768E+03   -1.4965E+05  setid=       0
 node=    30 local x,y,z forces =   -3.6398E+04   -1.6545E+04   -2.3791E+05  setid=       0
 node=    31 local x,y,z forces =   -1.9797E+04   -1.6384E+04   -2.1636E+05  setid=       0
 node=    32 local x,y,z forces =   -3.0447E+01   -1.6410E+04   -2.2454E+05  setid=       0
 node=    33 local x,y,z forces =    1.9763E+04   -1.6403E+04   -2.1661E+05  setid=       0
 node=    34 local x,y,z forces =    3.6403E+04   -1.6583E+04   -2.3847E+05  setid=       0
 node=    35 local x,y,z forces =    5.1868E+04   -8.4019E+03   -1.5008E+05  setid=       0
 node=    36 local x,y,z forces =   -5.1875E+04   -3.7866E+03   -1.5040E+05  setid=       0
 node=    37 local x,y,z forces =   -3.6604E+04   -7.4468E+03   -2.3910E+05  setid=       0
 node=    38 local x,y,z forces =   -1.9998E+04   -7.3220E+03   -2.1742E+05  setid=       0
 node=    39 local x,y,z forces =   -2.8360E+01   -7.3155E+03   -2.2568E+05  setid=       0
 node=    40 local x,y,z forces =    1.9968E+04   -7.3305E+03   -2.1767E+05  setid=       0
 node=    41 local x,y,z forces =    3.6612E+04   -7.4643E+03   -2.3967E+05  setid=       0
 node=    42 local x,y,z forces =    5.1997E+04   -3.7981E+03   -1.5083E+05  setid=       0
 node=    43 local x,y,z forces =   -5.1853E+04   -2.1828E-11   -1.4976E+05  setid=       0
 node=    44 local x,y,z forces =   -3.6666E+04   -3.6380E-11   -2.3771E+05  setid=       0
 node=    45 local x,y,z forces =   -2.0059E+04   -5.8208E-11   -2.1594E+05  setid=       0
 node=    46 local x,y,z forces =   -2.7657E+01   -5.0932E-11   -2.2422E+05  setid=       0
 node=    47 local x,y,z forces =    2.0031E+04   -4.3656E-11   -2.1620E+05  setid=       0
 node=    48 local x,y,z forces =    3.6675E+04   -2.9104E-11   -2.3828E+05  setid=       0
 node=    49 local x,y,z forces =    5.1975E+04   -1.4552E-11   -1.5020E+05  setid=       0
 node=    50 local x,y,z forces =   -5.1875E+04    3.7866E+03   -1.5040E+05  setid=       0
 node=    51 local x,y,z forces =   -3.6604E+04    7.4468E+03   -2.3910E+05  setid=       0
 node=    52 local x,y,z forces =   -1.9998E+04    7.3220E+03   -2.1742E+05  setid=       0
 node=    53 local x,y,z forces =   -2.8360E+01    7.3155E+03   -2.2568E+05  setid=       0
 node=    54 local x,y,z forces =    1.9968E+04    7.3305E+03   -2.1767E+05  setid=       0
 node=    55 local x,y,z forces =    3.6612E+04    7.4643E+03   -2.3967E+05  setid=       0
 node=    56 local x,y,z forces =    5.1997E+04    3.7981E+03   -1.5083E+05  setid=       0
 node=    57 local x,y,z forces =   -5.1750E+04    8.3768E+03   -1.4965E+05  setid=       0
 node=    58 local x,y,z forces =   -3.6398E+04    1.6545E+04   -2.3791E+05  setid=       0
 node=    59 local x,y,z forces =   -1.9797E+04    1.6384E+04   -2.1636E+05  setid=       0
 node=    60 local x,y,z forces =   -3.0447E+01    1.6410E+04   -2.2454E+05  setid=       0
 node=    61 local x,y,z forces =    1.9763E+04    1.6403E+04   -2.1661E+05  setid=       0
 node=    62 local x,y,z forces =    3.6403E+04    1.6583E+04   -2.3847E+05  setid=       0
 node=    63 local x,y,z forces =    5.1868E+04    8.4019E+03   -1.5008E+05  setid=       0
 node=    64 local x,y,z forces =   -5.1860E+04    1.1993E+04   -1.5170E+05  setid=       0
 node=    65 local x,y,z forces =   -3.6031E+04    2.3728E+04   -2.4257E+05  setid=       0
 node=    66 local x,y,z forces =   -1.9420E+04    2.3639E+04   -2.2127E+05  setid=       0
 node=    67 local x,y,z forces =   -3.4888E+01    2.3777E+04   -2.2930E+05  setid=       0
 node=    68 local x,y,z forces =    1.9377E+04    2.3666E+04   -2.2153E+05  setid=       0
 node=    69 local x,y,z forces =    3.6029E+04    2.3783E+04   -2.4313E+05  setid=       0
 node=    70 local x,y,z forces =    5.1973E+04    1.2030E+04   -1.5212E+05  setid=       0
 node=    71 local x,y,z forces =   -5.1700E+04    1.9949E+04   -1.5008E+05  setid=       0
 node=    72 local x,y,z forces =   -3.5497E+04    3.9885E+04   -2.3971E+05  setid=       0
 node=    73 local x,y,z forces =   -1.8867E+04    4.0348E+04   -2.1823E+05  setid=       0
 node=    74 local x,y,z forces =   -4.2260E+01    4.0775E+04   -2.2581E+05  setid=       0
 node=    75 local x,y,z forces =    1.8809E+04    4.0392E+04   -2.1848E+05  setid=       0
 node=    76 local x,y,z forces =    3.5484E+04    3.9976E+04   -2.4024E+05  setid=       0
 node=    77 local x,y,z forces =    5.1803E+04    2.0009E+04   -1.5048E+05  setid=       0
 node=    78 local x,y,z forces =   -5.4717E+04    2.2138E+04   -1.6770E+05  setid=       0
 node=    79 local x,y,z forces =   -3.5298E+04    4.4468E+04   -2.7552E+05  setid=       0
 node=    80 local x,y,z forces =   -1.8618E+04    4.5144E+04   -2.5449E+05  setid=       0
 node=    81 local x,y,z forces =   -5.9646E+01    4.5575E+04   -2.6189E+05  setid=       0
 node=    82 local x,y,z forces =    1.8523E+04    4.5193E+04   -2.5477E+05  setid=       0
 node=    83 local x,y,z forces =    3.5254E+04    4.4567E+04   -2.7611E+05  setid=       0
 node=    84 local x,y,z forces =    5.4812E+04    2.2203E+04   -1.6812E+05  setid=       0
 node=    85 local x,y,z forces =   -2.9388E+04    3.6855E+04   -1.0413E+05  setid=       0
 node=    86 local x,y,z forces =   -1.7757E+04    7.0139E+04   -1.7873E+05  setid=       0
 node=    87 local x,y,z forces =   -9.3546E+03    6.8081E+04   -1.6885E+05  setid=       0
 node=    88 local x,y,z forces =   -3.7092E+01    6.8828E+04   -1.7273E+05  setid=       0
 node=    89 local x,y,z forces =    9.2921E+03    6.8155E+04   -1.6904E+05  setid=       0
 node=    90 local x,y,z forces =    1.7723E+04    7.0288E+04   -1.7910E+05  setid=       0
 node=    91 local x,y,z forces =    2.9434E+04    3.6952E+04   -1.0439E+05  setid=       0
 node=  4551 local x,y,z forces =   -2.9388E+04   -3.6855E+04    0.0000E+00  setid=       0
 node=  4552 local x,y,z forces =   -1.7757E+04   -7.0139E+04    0.0000E+00  setid=       0
 node=  4553 local x,y,z forces =   -9.3546E+03   -6.8081E+04    0.0000E+00  setid=       0
 node=  4554 local x,y,z forces =   -3.7092E+01   -6.8828E+04    0.0000E+00  setid=       0
 node=  4555 local x,y,z forces =    9.2921E+03   -6.8155E+04    0.0000E+00  setid=       0
 node=  4556 local x,y,z forces =    1.7723E+04   -7.0288E+04    0.0000E+00  setid=       0
 node=  4557 local x,y,z forces =    2.9434E+04   -3.6952E+04    0.0000E+00  setid=       0
 node=  4558 local x,y,z forces =   -5.4717E+04   -2.2138E+04    0.0000E+00  setid=       0
 node=  4559 local x,y,z forces =   -3.5298E+04   -4.4468E+04    0.0000E+00  setid=       0
 node=  4560 local x,y,z forces =   -1.8618E+04   -4.5144E+04    0.0000E+00  setid=       0
 node=  4561 local x,y,z forces =   -5.9646E+01   -4.5575E+04    0.0000E+00  setid=       0
 node=  4562 local x,y,z forces =    1.8523E+04   -4.5193E+04    0.0000E+00  setid=       0
 node=  4563 local x,y,z forces =    3.5254E+04   -4.4567E+04    0.0000E+00  setid=       0
 node=  4564 local x,y,z forces =    5.4812E+04   -2.2203E+04    0.0000E+00  setid=       0
 node=  4565 local x,y,z forces =   -5.1700E+04   -1.9949E+04    0.0000E+00  setid=       0
 node=  4566 local x,y,z forces =   -3.5497E+04   -3.9885E+04    0.0000E+00  setid=       0
 node=  4567 local x,y,z forces =   -1.8867E+04   -4.0348E+04    0.0000E+00  setid=       0
 node=  4568 local x,y,z forces =   -4.2260E+01   -4.0775E+04    0.0000E+00  setid=       0
 node=  4569 local x,y,z forces =    1.8809E+04   -4.0392E+04    0.0000E+00  setid=       0
 node=  4570 local x,y,z forces =    3.5484E+04   -3.9976E+04    0.0000E+00  setid=       0
 node=  4571 local x,y,z forces =    5.1803E+04   -2.0009E+04    0.0000E+00  setid=       0
 node=  4572 local x,y,z forces =   -5.1860E+04   -1.1993E+04    0.0000E+00  setid=       0
 node=  4573 local x,y,z forces =   -3.6031E+04   -2.3728E+04    0.0000E+00  setid=       0
 node=  4574 local x,y,z forces =   -1.9420E+04   -2.3639E+04    0.0000E+00  setid=       0
 node=  4575 local x,y,z forces =   -3.4888E+01   -2.3777E+04    0.0000E+00  setid=       0
 node=  4576 local x,y,z forces =    1.9377E+04   -2.3666E+04    0.0000E+00  setid=       0
 node=  4577 local x,y,z forces =    3.6029E+04   -2.3783E+04    0.0000E+00  setid=       0
 node=  4578 local x,y,z forces =    5.1973E+04   -1.2030E+04    0.0000E+00  setid=       0
 node=  4579 local x,y,z forces =   -5.1750E+04   -8.3768E+03    0.0000E+00  setid=       0
 node=  4580 local x,y,z forces =   -3.6398E+04   -1.6545E+04    0.0000E+00  setid=       0
 node=  4581 local x,y,z forces =   -1.9797E+04   -1.6384E+04    0.0000E+00  setid=       0
 node=  4582 local x,y,z forces =   -3.0447E+01   -1.6410E+04    0.0000E+00  setid=       0
 node=  4583 local x,y,z forces =    1.9763E+04   -1.6403E+04    0.0000E+00  setid=       0
 node=  4584 local x,y,z forces =    3.6403E+04   -1.6583E+04    0.0000E+00  setid=       0
 node=  4585 local x,y,z forces =    5.1868E+04   -8.4019E+03    0.0000E+00  setid=       0
 node=  4586 local x,y,z forces =   -5.1875E+04   -3.7866E+03    0.0000E+00  setid=       0
 node=  4587 local x,y,z forces =   -3.6604E+04   -7.4468E+03    0.0000E+00  setid=       0
 node=  4588 local x,y,z forces =   -1.9998E+04   -7.3220E+03    0.0000E+00  setid=       0
 node=  4589 local x,y,z forces =   -2.8360E+01   -7.3155E+03    0.0000E+00  setid=       0
 node=  4590 local x,y,z forces =    1.9968E+04   -7.3305E+03    0.0000E+00  setid=       0
 node=  4591 local x,y,z forces =    3.6612E+04   -7.4643E+03    0.0000E+00  setid=       0
 node=  4592 local x,y,z forces =    5.1997E+04   -3.7981E+03    0.0000E+00  setid=       0
 node=  4593 local x,y,z forces =   -5.1853E+04   -2.9831E-10    0.0000E+00  setid=       0
 node=  4594 local x,y,z forces =   -3.6666E+04   -4.0745E-10    0.0000E+00  setid=       0
 node=  4595 local x,y,z forces =   -2.0059E+04   -7.2760E-12    0.0000E+00  setid=       0
 node=  4596 local x,y,z forces =   -2.7657E+01    6.5484E-10    0.0000E+00  setid=       0
 node=  4597 local x,y,z forces =    2.0031E+04    1.8917E-10    0.0000E+00  setid=       0
 node=  4598 local x,y,z forces =    3.6675E+04   -6.8394E-10    0.0000E+00  setid=       0
 node=  4599 local x,y,z forces =    5.1975E+04   -3.2742E-10    0.0000E+00  setid=       0
 node=  4600 local x,y,z forces =   -5.1875E+04    3.7866E+03    0.0000E+00  setid=       0
 node=  4601 local x,y,z forces =   -3.6604E+04    7.4468E+03    0.0000E+00  setid=       0
 node=  4602 local x,y,z forces =   -1.9998E+04    7.3220E+03    0.0000E+00  setid=       0
 node=  4603 local x,y,z forces =   -2.8360E+01    7.3155E+03    0.0000E+00  setid=       0
 node=  4604 local x,y,z forces =    1.9968E+04    7.3305E+03    0.0000E+00  setid=       0
 node=  4605 local x,y,z forces =    3.6612E+04    7.4643E+03    0.0000E+00  setid=       0
 node=  4606 local x,y,z forces =    5.1997E+04    3.7981E+03    0.0000E+00  setid=       0
 node=  4607 local x,y,z forces =   -5.1750E+04    8.3768E+03    0.0000E+00  setid=       0
 node=  4608 local x,y,z forces =   -3.6398E+04    1.6545E+04    0.0000E+00  setid=       0
 node=  4609 local x,y,z forces =   -1.9797E+04    1.6384E+04    0.0000E+00  setid=       0
 node=  4610 local x,y,z forces =   -3.0447E+01    1.6410E+04    0.0000E+00  setid=       0
 node=  4611 local x,y,z forces =    1.9763E+04    1.6403E+04    0.0000E+00  setid=       0
 node=  4612 local x,y,z forces =    3.6403E+04    1.6583E+04    0.0000E+00  setid=       0
 node=  4613 local x,y,z forces =    5.1868E+04    8.4019E+03    0.0000E+00  setid=       0
 node=  4614 local x,y,z forces =   -5.1860E+04    1.1993E+04    0.0000E+00  setid=       0
 node=  4615 local x,y,z forces =   -3.6031E+04    2.3728E+04    0.0000E+00  setid=       0
 node=  4616 local x,y,z forces =   -1.9420E+04    2.3639E+04    0.0000E+00  setid=       0
 node=  4617 local x,y,z forces =   -3.4888E+01    2.3777E+04    0.0000E+00  setid=       0
 node=  4618 local x,y,z forces =    1.9377E+04    2.3666E+04    0.0000E+00  setid=       0
 node=  4619 local x,y,z forces =    3.6029E+04    2.3783E+04    0.0000E+00  setid=       0
 node=  4620 local x,y,z forces =    5.1973E+04    1.2030E+04    0.0000E+00  setid=       0
 node=  4621 local x,y,z forces =   -5.1700E+04    1.9949E+04    0.0000E+00  setid=       0
 node=  4622 local x,y,z forces =   -3.5497E+04    3.9885E+04    0.0000E+00  setid=       0
 node=  4623 local x,y,z forces =   -1.8867E+04    4.0348E+04    0.0000E+00  setid=       0
 node=  4624 local x,y,z forces =   -4.2260E+01    4.0775E+04    0.0000E+00  setid=       0
 node=  4625 local x,y,z forces =    1.8809E+04    4.0392E+04    0.0000E+00  setid=       0
 node=  4626 local x,y,z forces =    3.5484E+04    3.9976E+04    0.0000E+00  setid=       0
 node=  4627 local x,y,z forces =    5.1803E+04    2.0009E+04    0.0000E+00  setid=       0
 node=  4628 local x,y,z forces =   -5.4717E+04    2.2138E+04    0.0000E+00  setid=       0
 node=  4629 local x,y,z forces =   -3.5298E+04    4.4468E+04    0.0000E+00  setid=       0
 node=  4630 local x,y,z forces =   -1.8618E+04    4.5144E+04    0.0000E+00  setid=       0
 node=  4631 local x,y,z forces =   -5.9646E+01    4.5575E+04    0.0000E+00  setid=       0
 node=  4632 local x,y,z forces =    1.8523E+04    4.5193E+04    0.0000E+00  setid=       0
 node=  4633 local x,y,z forces =    3.5254E+04    4.4567E+04    0.0000E+00  setid=       0
 node=  4634 local x,y,z forces =    5.4812E+04    2.2203E+04    0.0000E+00  setid=       0
 node=  4635 local x,y,z forces =   -2.9388E+04    3.6855E+04    0.0000E+00  setid=       0
 node=  4636 local x,y,z forces =   -1.7757E+04    7.0139E+04    0.0000E+00  setid=       0
 node=  4637 local x,y,z forces =   -9.3546E+03    6.8081E+04    0.0000E+00  setid=       0
 node=  4638 local x,y,z forces =   -3.7092E+01    6.8828E+04    0.0000E+00  setid=       0
 node=  4639 local x,y,z forces =    9.2921E+03    6.8155E+04    0.0000E+00  setid=       0
 node=  4640 local x,y,z forces =    1.7723E+04    7.0288E+04    0.0000E+00  setid=       0
 node=  4641 local x,y,z forces =    2.9434E+04    3.6952E+04    0.0000E+00  setid=       0
             force resultants   =   -1.4310E+00   -3.0705E-09   -1.8462E+07
 output at time =   2.00000E-03
 node=     1 local x,y,z forces =   -3.9183E+04   -4.9134E+04   -1.3896E+05  setid=       0
 node=     2 local x,y,z forces =   -2.3676E+04   -9.3507E+04   -2.3848E+05  setid=       0
 node=     3 local x,y,z forces =   -1.2479E+04   -9.0762E+04   -2.2529E+05  setid=       0
 node=     4 local x,y,z forces =   -5.2491E+01   -9.1761E+04   -2.3047E+05  setid=       0
 node=     5 local x,y,z forces =    1.2390E+04   -9.0867E+04   -2.2555E+05  setid=       0
 node=     6 local x,y,z forces =    2.3628E+04   -9.3717E+04   -2.3901E+05  setid=       0
 node=     7 local x,y,z forces =    3.9249E+04   -4.9271E+04   -1.3932E+05  setid=       0
 node=     8 local x,y,z forces =   -7.2953E+04   -2.9508E+04   -2.2376E+05  setid=       0
 node=     9 local x,y,z forces =   -4.7063E+04   -5.9276E+04   -3.6757E+05  setid=       0
 node=    10 local x,y,z forces =   -2.4834E+04   -6.0178E+04   -3.3950E+05  setid=       0
 node=    11 local x,y,z forces =   -8.4386E+01   -6.0755E+04   -3.4938E+05  setid=       0
 node=    12 local x,y,z forces =    2.4700E+04   -6.0247E+04   -3.3989E+05  setid=       0
 node=    13 local x,y,z forces =    4.7002E+04   -5.9415E+04   -3.6839E+05  setid=       0
 node=    14 local x,y,z forces =    7.3086E+04   -2.9600E+04   -2.2435E+05  setid=       0
 node=    15 local x,y,z forces =   -6.8926E+04   -2.6601E+04   -2.0022E+05  setid=       0
 node=    16 local x,y,z forces =   -4.7328E+04   -5.3186E+04   -3.1976E+05  setid=       0
 node=    17 local x,y,z forces =   -2.5165E+04   -5.3804E+04   -2.9108E+05  setid=       0
 node=    18 local x,y,z forces =   -5.9759E+01   -5.4375E+04   -3.0121E+05  setid=       0
 node=    19 local x,y,z forces =    2.5082E+04   -5.3866E+04   -2.9143E+05  setid=       0
 node=    20 local x,y,z forces =    4.7309E+04   -5.3315E+04   -3.2051E+05  setid=       0
 node=    21 local x,y,z forces =    6.9072E+04   -2.6686E+04   -2.0078E+05  setid=       0
 node=    22 local x,y,z forces =   -6.9139E+04   -1.5991E+04   -2.0239E+05  setid=       0
 node=    23 local x,y,z forces =   -4.8039E+04   -3.1637E+04   -3.2357E+05  setid=       0
 node=    24 local x,y,z forces =   -2.5901E+04   -3.1519E+04   -2.9514E+05  setid=       0
 node=    25 local x,y,z forces =   -4.9310E+01   -3.1704E+04   -3.0586E+05  setid=       0
 node=    26 local x,y,z forces =    2.5841E+04   -3.1557E+04   -2.9550E+05  setid=       0
 node=    27 local x,y,z forces =    4.8037E+04   -3.1716E+04   -3.2435E+05  setid=       0
 node=    28 local x,y,z forces =    6.9298E+04   -1.6043E+04   -2.0298E+05  setid=       0
 node=    29 local x,y,z forces =   -6.8991E+04   -1.1171E+04   -1.9965E+05  setid=       0
 node=    30 local x,y,z forces =   -4.8528E+04   -2.2062E+04   -3.1735E+05  setid=       0
 node=    31 local x,y,z forces =   -2.6403E+04   -2.1848E+04   -2.8858E+05  setid=       0
 node=    32 local x,y,z forces =   -4.2993E+01   -2.1884E+04   -2.9952E+05  setid=       0
 node=    33 local x,y,z forces =    2.6356E+04   -2.1874E+04   -2.8894E+05  setid=       0
 node=    34 local x,y,z forces =    4.8536E+04   -2.2117E+04   -3.1814E+05  setid=       0
 node=    35 local x,y,z forces =    6.9158E+04   -1.1206E+04   -2.0025E+05  setid=       0
 node=    36 local x,y,z forces =   -6.9159E+04   -5.0494E+03   -2.0064E+05  setid=       0
 node=    37 local x,y,z forces =   -4.8802E+04   -9.9297E+03   -3.1894E+05  setid=       0
 node=    38 local x,y,z forces =   -2.6671E+04   -9.7630E+03   -2.8999E+05  setid=       0
 node=    39 local x,y,z forces =   -4.0030E+01   -9.7546E+03   -3.0103E+05  setid=       0
 node=    40 local x,y,z forces =    2.6630E+04   -9.7750E+03   -2.9035E+05  setid=       0
 node=    41 local x,y,z forces =    4.8815E+04   -9.9543E+03   -3.1974E+05  setid=       0
 node=    42 local x,y,z forces =    6.9330E+04   -5.0655E+03   -2.0126E+05  setid=       0
 node=    43 local x,y,z forces =   -6.9128E+04   -1.4552E-11   -1.9979E+05  setid=       0
 node=    44 local x,y,z forces =   -4.8884E+04   -7.2760E-12   -3.1708E+05  setid=       0
 node=    45 local x,y,z forces =   -2.6752E+04    8.7311E-11   -2.8803E+05  setid=       0
 node=    46 local x,y,z forces =   -3.9026E+01    2.9104E-11   -2.9908E+05  setid=       0
 node=    47 local x,y,z forces =    2.6713E+04   -1.4552E-11   -2.8839E+05  setid=       0
 node=    48 local x,y,z forces =    4.8898E+04    2.9104E-11   -3.1788E+05  setid=       0
 node=    49 local x,y,z forces =    6.9301E+04    0.0000E+00   -2.0041E+05  setid=       0
 node=    50 local x,y,z forces =   -6.9159E+04    5.0494E+03   -2.0064E+05  setid=       0
 node=    51 local x,y,z forces =   -4.8802E+04    9.9297E+03   -3.1894E+05  setid=       0
 node=    52 local x,y,z forces =   -2.6671E+04    9.7630E+03   -2.8999E+05  setid=       0
 node=    53 local x,y,z forces =   -4.0030E+01    9.7546E+03   -3.0103E+05  setid=       0
 node=    54 local x,y,z forces =    2.6630E+04    9.7750E+03   -2.9035E+05  setid=       0
 node=    55 local x,y,z forces =    4.8815E+04    9.9543E+03   -3.1974E+05  setid=       0
 node=    56 local x,y,z forces =    6.9330E+04    5.0655E+03   -2.0126E+05  setid=       0
 node=    57 local x,y,z forces =   -6.8991E+04    1.1171E+04   -1.9965E+05  setid=       0
 node=    58 local x,y,z forces =   -4.8528E+04    2.2062E+04   -3.1735E+05  setid=       0
 node=    59 local x,y,z forces =   -2.6403E+04    2.1848E+04   -2.8858E+05  setid=       0
 node=    60 local x,y,z forces =   -4.2993E+01    2.1884E+04   -2.9952E+05  setid=       0
 node=    61 local x,y,z forces =    2.6356E+04    2.1874E+04   -2.8894E+05  setid=       0
 node=    62 local x,y,z forces =    4.8536E+04    2.2117E+04   -3.1814E+05  setid=       0
 node=    63 local x,y,z forces =    6.9158E+04    1.1206E+04   -2.0025E+05  setid=       0
 node=    64 local x,y,z forces =   -6.9139E+04    1.5991E+04   -2.0239E+05  setid=       0
 node=    65 local x,y,z forces =   -4.8039E+04    3.1637E+04   -3.2357E+05  setid=       0
 node=    66 local x,y,z forces =   -2.5901E+04    3.1519E+04   -2.9514E+05  setid=       0
 node=    67 local x,y,z forces =   -4.9310E+01    3.1704E+04   -3.0586E+05  setid=       0
 node=    68 local x,y,z forces =    2.5841E+04    3.1557E+04   -2.9550E+05  setid=       0
 node=    69 local x,y,z forces =    4.8037E+04    3.1716E+04   -3.2435E+05  setid=       0
 node=    70 local x,y,z forces =    6.9298E+04    1.6043E+04   -2.0298E+05  setid=       0
 node=    71 local x,y,z forces =   -6.8926E+04    2.6601E+04   -2.0022E+05  setid=       0
 node=    72 local x,y,z forces =   -4.7328E+04    5.3186E+04   -3.1976E+05  setid=       0
 node=    73 local x,y,z forces =   -2.5165E+04    5.3804E+04   -2.9108E+05  setid=       0
 node=    74 local x,y,z forces =   -5.9759E+01    5.4375E+04   -3.0121E+05  setid=       0
 node=    75 local x,y,z forces =    2.5082E+04    5.3866E+04   -2.9143E+05  setid=       0
 node=    76 local x,y,z forces =    4.7309E+04    5.3315E+04   -3.2051E+05  setid=       0
 node=    77 local x,y,z forces =    6.9072E+04    2.6686E+04   -2.0078E+05  setid=       0
 node=    78 local x,y,z forces =   -7.2953E+04    2.9508E+04   -2.2376E+05  setid=       0
 node=    79 local x,y,z forces =   -4.7063E+04    5.9276E+04   -3.6757E+05  setid=       0
 node=    80 local x,y,z forces =   -2.4834E+04    6.0178E+04   -3.3950E+05  setid=       0
 node=    81 local x,y,z forces =   -8.4386E+01    6.0755E+04   -3.4938E+05  setid=       0
 node=    82 local x,y,z forces =    2.4700E+04    6.0247E+04   -3.3989E+05  setid=       0
 node=    83 local x,y,z forces =    4.7002E+04    5.9415E+04   -3.6839E+05  setid=       0
 node=    84 local x,y,z forces =    7.3086E+04    2.9600E+04   -2.2435E+05  setid=       0
 node=    85 local x,y,z forces =   -3.9183E+04    4.9134E+04   -1.3896E+05  setid=       0
 node=    86 local x,y,z forces =   -2.3676E+04    9.3507E+04   -2.3848E+05  setid=       0
 node=    87 local x,y,z forces =   -1.2479E+04    9.0762E+04   -2.2529E+05  setid=       0
 node=    88 local x,y,z forces =   -5.2491E+01    9.1761E+04   -2.3047E+05  setid=       0
 node=    89 local x,y,z forces =    1.2390E+04    9.0867E+04   -2.2555E+05  setid=       0
 node=    90 local x,y,z forces =    2.3628E+04    9.3717E+04   -2.3901E+05  setid=       0
 node=    91 local x,y,z forces =    3.9249E+04    4.9271E+04   -1.3932E+05  setid=       0
 node=  4551 local x,y,z forces =   -3.9183E+04   -4.9134E+04    0.0000E+00  setid=       0
 node=  4552 local x,y,z forces =   -2.3676E+04   -9.3507E+04    0.0000E+00  setid=       0
 node=  4553 local x,y,z forces =   -1.2479E+04   -9.0762E+04    0.0000E+00  setid=       0
 node=  4554 local x,y,z forces =   -5.2491E+01   -9.1761E+04    0.0000E+00  setid=       0
 node=  4555 local x,y,z forces =    1.2390E+04   -9.0867E+04    0.0000E+00  setid=       0
 node=  4556 local x,y,z forces =    2.3628E+04   -9.3717E+04    0.0000E+00  setid=       0
 node=  4557 local x,y,z forces =    3.9249E+04   -4.9271E+04    0.0000E+00  setid=       0
 node=  4558 local x,y,z forces =   -7.2953E+04   -2.9508E+04    0.0000E+00  setid=       0
 node=  4559 local x,y,z forces =   -4.7063E+04   -5.9276E+04    0.0000E+00  setid=       0
 node=  4560 local x,y,z forces =   -2.4834E+04   -6.0178E+04    0.0000E+00  setid=       0
 node=  4561 local x,y,z forces =   -8.4386E+01   -6.0755E+04    0.0000E+00  setid=       0
 node=  4562 local x,y,z forces =    2.4700E+04   -6.0247E+04    0.0000E+00  setid=       0
 node=  4563 local x,y,z forces =    4.7002E+04   -5.9415E+04    0.0000E+00  setid=       0
 node=  4564 local x,y,z forces =    7.3086E+04   -2.9600E+04    0.0000E+00  setid=       0
 node=  4565 local x,y,z forces =   -6.8926E+04   -2.6601E+04    0.0000E+00  setid=       0
 node=  4566 local x,y,z forces =   -4.7328E+04   -5.3186E+04    0.0000E+00  setid=       0
 node=  4567 local x,y,z forces =   -2.5165E+04   -5.3804E+04    0.0000E+00  setid=       0
 node=  4568 local x,y,z forces =   -5.9759E+01   -5.4375E+04    0.0000E+00  setid=       0
 node=  4569 local x,y,z forces =    2.5082E+04   -5.3866E+04    0.0000E+00  setid=       0
 node=  4570 local x,y,z forces =    4.7309E+04   -5.3315E+04    0.0000E+00  setid=       0
 node=  4571 local x,y,z forces =    6.9072E+04   -2.6686E+04    0.0000E+00  setid=       0
 node=  4572 local x,y,z forces =   -6.9139E+04   -1.5991E+04    0.0000E+00  setid=       0
 node=  4573 local x,y,z forces =   -4.8039E+04   -3.1637E+04    0.0000E+00  setid=       0
 node=  4574 local x,y,z forces =   -2.5901E+04   -3.1519E+04    0.0000E+00  setid=       0
 node=  4575 local x,y,z forces =   -4.9310E+01   -3.1704E+04    0.0000E+00  setid=       0
 node=  4576 local x,y,z forces =    2.5841E+04   -3.1557E+04    0.0000E+00  setid=       0
 node=  4577 local x,y,z forces =    4.8037E+04   -3.1716E+04    0.0000E+00  setid=       0
 node=  4578 local x,y,z forces =    6.9298E+04   -1.6043E+04    0.0000E+00  setid=       0
 node=  4579 local x,y,z forces =   -6.8991E+04   -1.1171E+04    0.0000E+00  setid=       0
 node=  4580 local x,y,z forces =   -4.8528E+04   -2.2062E+04    0.0000E+00  setid=       0
[...]
 node=  4611 local x,y,z forces =   -3.8704E+05    3.3894E+05    0.0000E+00  setid=       0
 node=  4612 local x,y,z forces =    2.1082E+05    5.9799E+05    0.0000E+00  setid=       0
 node=  4613 local x,y,z forces =    1.5943E+06    3.7422E+05    0.0000E+00  setid=       0
 node=  4614 local x,y,z forces =    1.2234E+06   -3.7641E+05    0.0000E+00  setid=       0
 node=  4615 local x,y,z forces =    1.4705E+04   -5.6254E+05    0.0000E+00  setid=       0
 node=  4616 local x,y,z forces =   -5.8462E+05   -2.0410E+05    0.0000E+00  setid=       0
 node=  4617 local x,y,z forces =   -9.0106E+05    1.3598E+05    0.0000E+00  setid=       0
 node=  4618 local x,y,z forces =   -5.2658E+05    4.7473E+05    0.0000E+00  setid=       0
 node=  4619 local x,y,z forces =    1.0677E+05    8.4849E+05    0.0000E+00  setid=       0
 node=  4620 local x,y,z forces =    1.5222E+06    5.3503E+05    0.0000E+00  setid=       0
 node=  4621 local x,y,z forces =    1.0936E+06   -6.0727E+05    0.0000E+00  setid=       0
 node=  4622 local x,y,z forces =   -1.6271E+05   -9.0348E+05    0.0000E+00  setid=       0
 node=  4623 local x,y,z forces =   -8.0180E+05   -3.2649E+05    0.0000E+00  setid=       0
 node=  4624 local x,y,z forces =   -1.1044E+06    2.2971E+05    0.0000E+00  setid=       0
 node=  4625 local x,y,z forces =   -7.3363E+05    7.8614E+05    0.0000E+00  setid=       0
 node=  4626 local x,y,z forces =   -2.3777E+04    1.3763E+06    0.0000E+00  setid=       0
 node=  4627 local x,y,z forces =    1.4163E+06    8.6172E+05    0.0000E+00  setid=       0
 node=  4628 local x,y,z forces =    9.7710E+05   -6.6277E+05    0.0000E+00  setid=       0
 node=  4629 local x,y,z forces =   -5.2292E+05   -1.0051E+06    0.0000E+00  setid=       0
 node=  4630 local x,y,z forces =   -1.2658E+06   -3.8571E+05    0.0000E+00  setid=       0
 node=  4631 local x,y,z forces =   -1.5752E+06    2.3217E+05    0.0000E+00  setid=       0
 node=  4632 local x,y,z forces =   -1.2520E+06    8.2902E+05    0.0000E+00  setid=       0
 node=  4633 local x,y,z forces =   -4.2245E+05    1.4107E+06    0.0000E+00  setid=       0
 node=  4634 local x,y,z forces =    1.3143E+06    8.8829E+05    0.0000E+00  setid=       0
 node=  4635 local x,y,z forces =    4.8394E+05   -9.8593E+05    0.0000E+00  setid=       0
 node=  4636 local x,y,z forces =   -3.8951E+05   -1.4989E+06    0.0000E+00  setid=       0
 node=  4637 local x,y,z forces =   -8.0942E+05   -5.7952E+05    0.0000E+00  setid=       0
 node=  4638 local x,y,z forces =   -9.8167E+05    3.6036E+05    0.0000E+00  setid=       0
 node=  4639 local x,y,z forces =   -8.5462E+05    1.2734E+06    0.0000E+00  setid=       0
 node=  4640 local x,y,z forces =   -4.1028E+05    2.1334E+06    0.0000E+00  setid=       0
 node=  4641 local x,y,z forces =    6.4076E+05    1.3076E+06    0.0000E+00  setid=       0
             force resultants   =    8.0729E+03   -4.8429E-08   -1.0165E+08
 output at time =   5.00000E-02
 node=     1 local x,y,z forces =    4.8807E+05    9.9305E+05    2.4112E+06  setid=       0
 node=     2 local x,y,z forces =   -3.9063E+05    1.5101E+06    3.5814E+06  setid=       0
 node=     3 local x,y,z forces =   -8.1365E+05    5.8486E+05    1.4337E+06  setid=       0
 node=     4 local x,y,z forces =   -9.8762E+05   -3.6077E+05   -8.9537E+05  setid=       0
 node=     5 local x,y,z forces =   -8.6063E+05   -1.2793E+06   -3.3189E+06  setid=       0
 node=     6 local x,y,z forces =   -4.1399E+05   -2.1441E+06   -5.7618E+06  setid=       0
 node=     7 local x,y,z forces =    6.4333E+05   -1.3143E+06   -3.8026E+06  setid=       0
 node=     8 local x,y,z forces =    9.8513E+05    6.6756E+05    3.9883E+06  setid=       0
 node=     9 local x,y,z forces =   -5.2401E+05    1.0129E+06    5.7028E+06  setid=       0
 node=    10 local x,y,z forces =   -1.2724E+06    3.8966E+05    2.2553E+06  setid=       0
 node=    11 local x,y,z forces =   -1.5848E+06   -2.3202E+05   -1.3186E+06  setid=       0
 node=    12 local x,y,z forces =   -1.2609E+06   -8.3247E+05   -4.9751E+06  setid=       0
 node=    13 local x,y,z forces =   -4.2694E+05   -1.4176E+06   -8.7922E+06  setid=       0
 node=    14 local x,y,z forces =    1.3201E+06   -8.9293E+05   -6.0444E+06  setid=       0
 node=    15 local x,y,z forces =    1.1022E+06    6.1153E+05    3.8349E+06  setid=       0
 node=    16 local x,y,z forces =   -1.6169E+05    9.1019E+05    5.2387E+06  setid=       0
 node=    17 local x,y,z forces =   -8.0571E+05    3.2974E+05    2.0226E+06  setid=       0
 node=    18 local x,y,z forces =   -1.1111E+06   -2.2984E+05   -1.1031E+06  setid=       0
 node=    19 local x,y,z forces =   -7.3919E+05   -7.8970E+05   -4.2621E+06  setid=       0
 node=    20 local x,y,z forces =   -2.5717E+04   -1.3835E+06   -7.7779E+06  setid=       0
 node=    21 local x,y,z forces =    1.4228E+06   -8.6645E+05   -5.6113E+06  setid=       0
 node=    22 local x,y,z forces =    1.2328E+06    3.7903E+05    4.0874E+06  setid=       0
 node=    23 local x,y,z forces =    1.6980E+04    5.6668E+05    5.4945E+06  setid=       0
 node=    24 local x,y,z forces =   -5.8713E+05    2.0608E+05    2.0680E+06  setid=       0
 node=    25 local x,y,z forces =   -9.0648E+05   -1.3608E+05   -1.1321E+06  setid=       0
 node=    26 local x,y,z forces =   -5.3093E+05   -4.7692E+05   -4.3650E+06  setid=       0
 node=    27 local x,y,z forces =    1.0545E+05   -8.5300E+05   -8.1162E+06  setid=       0
 node=    28 local x,y,z forces =    1.5292E+06   -5.3801E+05   -5.9563E+06  setid=       0
 node=    29 local x,y,z forces =    1.2995E+06    2.5856E+05    4.1835E+06  setid=       0
 node=    30 local x,y,z forces =    1.0768E+05    3.8893E+05    5.5567E+06  setid=       0
 node=    31 local x,y,z forces =   -4.6547E+05    1.4425E+05    2.0603E+06  setid=       0
 node=    32 local x,y,z forces =   -7.7671E+05   -9.6924E+04   -1.1132E+06  setid=       0
 node=    33 local x,y,z forces =   -3.9051E+05   -3.4054E+05   -4.3126E+06  setid=       0
 node=    34 local x,y,z forces =    2.1015E+05   -6.0121E+05   -8.1400E+06  setid=       0
 node=    35 local x,y,z forces =    1.6018E+06   -3.7632E+05   -6.0600E+06  setid=       0
 node=    36 local x,y,z forces =    1.3462E+06    1.1843E+05    4.2826E+06  setid=       0
 node=    37 local x,y,z forces =    1.6103E+05    1.7895E+05    5.6662E+06  setid=       0
 node=    38 local x,y,z forces =   -4.0237E+05    6.6833E+04    2.0874E+06  setid=       0
 node=    39 local x,y,z forces =   -7.1682E+05   -4.3425E+04   -1.1263E+06  setid=       0
 node=    40 local x,y,z forces =   -3.3113E+05   -1.5481E+05   -4.3656E+06  setid=       0
 node=    41 local x,y,z forces =    2.4456E+05   -2.7424E+05   -8.2901E+06  setid=       0
 node=    42 local x,y,z forces =    1.6387E+06   -1.7208E+05   -6.1997E+06  setid=       0
 node=    43 local x,y,z forces =    1.3566E+06   -2.3283E-10    4.2957E+06  setid=       0
 node=    44 local x,y,z forces =    1.7354E+05    1.2806E-09    5.6713E+06  setid=       0
 node=    45 local x,y,z forces =   -3.8381E+05    9.6043E-10    2.0841E+06  setid=       0
 node=    46 local x,y,z forces =   -6.9506E+05    2.3283E-10   -1.1197E+06  setid=       0
 node=    47 local x,y,z forces =   -3.0590E+05    3.2596E-09   -4.3479E+06  setid=       0
 node=    48 local x,y,z forces =    2.6587E+05   -6.9849E-10   -8.2804E+06  setid=       0
 node=    49 local x,y,z forces =    1.6537E+06   -3.2596E-09   -6.2100E+06  setid=       0
 node=    50 local x,y,z forces =    1.3462E+06   -1.1843E+05    4.2826E+06  setid=       0
 node=    51 local x,y,z forces =    1.6103E+05   -1.7895E+05    5.6662E+06  setid=       0
 node=    52 local x,y,z forces =   -4.0237E+05   -6.6833E+04    2.0874E+06  setid=       0
 node=    53 local x,y,z forces =   -7.1682E+05    4.3425E+04   -1.1263E+06  setid=       0
 node=    54 local x,y,z forces =   -3.3113E+05    1.5481E+05   -4.3656E+06  setid=       0
 node=    55 local x,y,z forces =    2.4456E+05    2.7424E+05   -8.2901E+06  setid=       0
 node=    56 local x,y,z forces =    1.6387E+06    1.7208E+05   -6.1997E+06  setid=       0
 node=    57 local x,y,z forces =    1.2995E+06   -2.5856E+05    4.1835E+06  setid=       0
 node=    58 local x,y,z forces =    1.0768E+05   -3.8893E+05    5.5567E+06  setid=       0
 node=    59 local x,y,z forces =   -4.6547E+05   -1.4425E+05    2.0603E+06  setid=       0
 node=    60 local x,y,z forces =   -7.7671E+05    9.6924E+04   -1.1132E+06  setid=       0
 node=    61 local x,y,z forces =   -3.9051E+05    3.4054E+05   -4.3126E+06  setid=       0
 node=    62 local x,y,z forces =    2.1015E+05    6.0121E+05   -8.1400E+06  setid=       0
 node=    63 local x,y,z forces =    1.6018E+06    3.7632E+05   -6.0600E+06  setid=       0
 node=    64 local x,y,z forces =    1.2328E+06   -3.7903E+05    4.0874E+06  setid=       0
 node=    65 local x,y,z forces =    1.6980E+04   -5.6668E+05    5.4945E+06  setid=       0
 node=    66 local x,y,z forces =   -5.8713E+05   -2.0608E+05    2.0680E+06  setid=       0
 node=    67 local x,y,z forces =   -9.0648E+05    1.3608E+05   -1.1321E+06  setid=       0
 node=    68 local x,y,z forces =   -5.3093E+05    4.7692E+05   -4.3650E+06  setid=       0
 node=    69 local x,y,z forces =    1.0545E+05    8.5300E+05   -8.1162E+06  setid=       0
 node=    70 local x,y,z forces =    1.5292E+06    5.3801E+05   -5.9563E+06  setid=       0
 node=    71 local x,y,z forces =    1.1022E+06   -6.1153E+05    3.8349E+06  setid=       0
 node=    72 local x,y,z forces =   -1.6169E+05   -9.1019E+05    5.2387E+06  setid=       0
 node=    73 local x,y,z forces =   -8.0571E+05   -3.2974E+05    2.0226E+06  setid=       0
 node=    74 local x,y,z forces =   -1.1111E+06    2.2984E+05   -1.1031E+06  setid=       0
 node=    75 local x,y,z forces =   -7.3919E+05    7.8970E+05   -4.2621E+06  setid=       0
 node=    76 local x,y,z forces =   -2.5717E+04    1.3835E+06   -7.7779E+06  setid=       0
 node=    77 local x,y,z forces =    1.4228E+06    8.6645E+05   -5.6113E+06  setid=       0
 node=    78 local x,y,z forces =    9.8513E+05   -6.6756E+05    3.9883E+06  setid=       0
 node=    79 local x,y,z forces =   -5.2401E+05   -1.0129E+06    5.7028E+06  setid=       0
 node=    80 local x,y,z forces =   -1.2724E+06   -3.8966E+05    2.2553E+06  setid=       0
 node=    81 local x,y,z forces =   -1.5848E+06    2.3202E+05   -1.3186E+06  setid=       0
 node=    82 local x,y,z forces =   -1.2609E+06    8.3247E+05   -4.9751E+06  setid=       0
 node=    83 local x,y,z forces =   -4.2694E+05    1.4176E+06   -8.7922E+06  setid=       0
 node=    84 local x,y,z forces =    1.3201E+06    8.9293E+05   -6.0444E+06  setid=       0
 node=    85 local x,y,z forces =    4.8807E+05   -9.9305E+05    2.4112E+06  setid=       0
 node=    86 local x,y,z forces =   -3.9063E+05   -1.5101E+06    3.5814E+06  setid=       0
 node=    87 local x,y,z forces =   -8.1365E+05   -5.8486E+05    1.4337E+06  setid=       0
 node=    88 local x,y,z forces =   -9.8762E+05    3.6077E+05   -8.9537E+05  setid=       0
 node=    89 local x,y,z forces =   -8.6063E+05    1.2793E+06   -3.3189E+06  setid=       0
 node=    90 local x,y,z forces =   -4.1399E+05    2.1441E+06   -5.7618E+06  setid=       0
 node=    91 local x,y,z forces =    6.4333E+05    1.3143E+06   -3.8026E+06  setid=       0
 node=  4551 local x,y,z forces =    4.8826E+05    9.9330E+05    0.0000E+00  setid=       0
 node=  4552 local x,y,z forces =   -3.9063E+05    1.5106E+06    0.0000E+00  setid=       0
 node=  4553 local x,y,z forces =   -8.1364E+05    5.8536E+05    0.0000E+00  setid=       0
 node=  4554 local x,y,z forces =   -9.8761E+05   -3.6027E+05    0.0000E+00  setid=       0
 node=  4555 local x,y,z forces =   -8.6062E+05   -1.2788E+06    0.0000E+00  setid=       0
 node=  4556 local x,y,z forces =   -4.1398E+05   -2.1436E+06    0.0000E+00  setid=       0
 node=  4557 local x,y,z forces =    6.4315E+05   -1.3140E+06    0.0000E+00  setid=       0
 node=  4558 local x,y,z forces =    9.8550E+05    6.6756E+05    0.0000E+00  setid=       0
 node=  4559 local x,y,z forces =   -5.2400E+05    1.0129E+06    0.0000E+00  setid=       0
 node=  4560 local x,y,z forces =   -1.2724E+06    3.8966E+05    0.0000E+00  setid=       0
 node=  4561 local x,y,z forces =   -1.5847E+06   -2.3202E+05    0.0000E+00  setid=       0
 node=  4562 local x,y,z forces =   -1.2609E+06   -8.3247E+05    0.0000E+00  setid=       0
 node=  4563 local x,y,z forces =   -4.2692E+05   -1.4176E+06    0.0000E+00  setid=       0
 node=  4564 local x,y,z forces =    1.3197E+06   -8.9293E+05    0.0000E+00  setid=       0
 node=  4565 local x,y,z forces =    1.1026E+06    6.1152E+05    0.0000E+00  setid=       0
 node=  4566 local x,y,z forces =   -1.6168E+05    9.1019E+05    0.0000E+00  setid=       0
 node=  4567 local x,y,z forces =   -8.0570E+05    3.2975E+05    0.0000E+00  setid=       0
 node=  4568 local x,y,z forces =   -1.1111E+06   -2.2984E+05    0.0000E+00  setid=       0
 node=  4569 local x,y,z forces =   -7.3917E+05   -7.8970E+05    0.0000E+00  setid=       0
 node=  4570 local x,y,z forces =   -2.5703E+04   -1.3835E+06    0.0000E+00  setid=       0
 node=  4571 local x,y,z forces =    1.4224E+06   -8.6645E+05    0.0000E+00  setid=       0
 node=  4572 local x,y,z forces =    1.2332E+06    3.7903E+05    0.0000E+00  setid=       0
 node=  4573 local x,y,z forces =    1.6991E+04    5.6668E+05    0.0000E+00  setid=       0
 node=  4574 local x,y,z forces =   -5.8712E+05    2.0608E+05    0.0000E+00  setid=       0
 node=  4575 local x,y,z forces =   -9.0647E+05   -1.3608E+05    0.0000E+00  setid=       0
 node=  4576 local x,y,z forces =   -5.3092E+05   -4.7692E+05    0.0000E+00  setid=       0
 node=  4577 local x,y,z forces =    1.0547E+05   -8.5300E+05    0.0000E+00  setid=       0
 node=  4578 local x,y,z forces =    1.5289E+06   -5.3801E+05    0.0000E+00  setid=       0
 node=  4579 local x,y,z forces =    1.2999E+06    2.5856E+05    0.0000E+00  setid=       0
 node=  4580 local x,y,z forces =    1.0769E+05    3.8893E+05    0.0000E+00  setid=       0
 node=  4581 local x,y,z forces =   -4.6546E+05    1.4425E+05    0.0000E+00  setid=       0
 node=  4582 local x,y,z forces =   -7.7670E+05   -9.6924E+04    0.0000E+00  setid=       0
 node=  4583 local x,y,z forces =   -3.9050E+05   -3.4054E+05    0.0000E+00  setid=       0
 node=  4584 local x,y,z forces =    2.1017E+05   -6.0121E+05    0.0000E+00  setid=       0
 node=  4585 local x,y,z forces =    1.6015E+06   -3.7632E+05    0.0000E+00  setid=       0
 node=  4586 local x,y,z forces =    1.3466E+06    1.1843E+05    0.0000E+00  setid=       0
 node=  4587 local x,y,z forces =    1.6105E+05    1.7895E+05    0.0000E+00  setid=       0
 node=  4588 local x,y,z forces =   -4.0236E+05    6.6833E+04    0.0000E+00  setid=       0
 node=  4589 local x,y,z forces =   -7.1681E+05   -4.3425E+04    0.0000E+00  setid=       0
 node=  4590 local x,y,z forces =   -3.3112E+05   -1.5481E+05    0.0000E+00  setid=       0
 node=  4591 local x,y,z forces =    2.4457E+05   -2.7424E+05    0.0000E+00  setid=       0
 node=  4592 local x,y,z forces =    1.6383E+06   -1.7208E+05    0.0000E+00  setid=       0
 node=  4593 local x,y,z forces =    1.3569E+06    3.7253E-09    0.0000E+00  setid=       0
 node=  4594 local x,y,z forces =    1.7356E+05    2.4447E-09    0.0000E+00  setid=       0
 node=  4595 local x,y,z forces =   -3.8380E+05   -3.3760E-09    0.0000E+00  setid=       0
 node=  4596 local x,y,z forces =   -6.9505E+05    6.9849E-10    0.0000E+00  setid=       0
 node=  4597 local x,y,z forces =   -3.0589E+05    4.1910E-09    0.0000E+00  setid=       0
 node=  4598 local x,y,z forces =    2.6589E+05   -2.0955E-09    0.0000E+00  setid=       0
 node=  4599 local x,y,z forces =    1.6533E+06   -2.0955E-09    0.0000E+00  setid=       0
 node=  4600 local x,y,z forces =    1.3466E+06   -1.1843E+05    0.0000E+00  setid=       0
 node=  4601 local x,y,z forces =    1.6105E+05   -1.7895E+05    0.0000E+00  setid=       0
 node=  4602 local x,y,z forces =   -4.0236E+05   -6.6833E+04    0.0000E+00  setid=       0
 node=  4603 local x,y,z forces =   -7.1681E+05    4.3425E+04    0.0000E+00  setid=       0
 node=  4604 local x,y,z forces =   -3.3112E+05    1.5481E+05    0.0000E+00  setid=       0
 node=  4605 local x,y,z forces =    2.4457E+05    2.7424E+05    0.0000E+00  setid=       0
 node=  4606 local x,y,z forces =    1.6383E+06    1.7208E+05    0.0000E+00  setid=       0
 node=  4607 local x,y,z forces =    1.2999E+06   -2.5856E+05    0.0000E+00  setid=       0
 node=  4608 local x,y,z forces =    1.0769E+05   -3.8893E+05    0.0000E+00  setid=       0
 node=  4609 local x,y,z forces =   -4.6546E+05   -1.4425E+05    0.0000E+00  setid=       0
 node=  4610 local x,y,z forces =   -7.7670E+05    9.6924E+04    0.0000E+00  setid=       0
 node=  4611 local x,y,z forces =   -3.9050E+05    3.4054E+05    0.0000E+00  setid=       0
 node=  4612 local x,y,z forces =    2.1017E+05    6.0121E+05    0.0000E+00  setid=       0
 node=  4613 local x,y,z forces =    1.6015E+06    3.7632E+05    0.0000E+00  setid=       0
 node=  4614 local x,y,z forces =    1.2332E+06   -3.7903E+05    0.0000E+00  setid=       0
 node=  4615 local x,y,z forces =    1.6991E+04   -5.6668E+05    0.0000E+00  setid=       0
 node=  4616 local x,y,z forces =   -5.8712E+05   -2.0608E+05    0.0000E+00  setid=       0
 node=  4617 local x,y,z forces =   -9.0647E+05    1.3608E+05    0.0000E+00  setid=       0
 node=  4618 local x,y,z forces =   -5.3092E+05    4.7692E+05    0.0000E+00  setid=       0
 node=  4619 local x,y,z forces =    1.0547E+05    8.5300E+05    0.0000E+00  setid=       0
 node=  4620 local x,y,z forces =    1.5289E+06    5.3801E+05    0.0000E+00  setid=       0
 node=  4621 local x,y,z forces =    1.1026E+06   -6.1152E+05    0.0000E+00  setid=       0
 node=  4622 local x,y,z forces =   -1.6168E+05   -9.1019E+05    0.0000E+00  setid=       0
 node=  4623 local x,y,z forces =   -8.0570E+05   -3.2975E+05    0.0000E+00  setid=       0
 node=  4624 local x,y,z forces =   -1.1111E+06    2.2984E+05    0.0000E+00  setid=       0
 node=  4625 local x,y,z forces =   -7.3917E+05    7.8970E+05    0.0000E+00  setid=       0
 node=  4626 local x,y,z forces =   -2.5703E+04    1.3835E+06    0.0000E+00  setid=       0
 node=  4627 local x,y,z forces =    1.4224E+06    8.6645E+05    0.0000E+00  setid=       0
 node=  4628 local x,y,z forces =    9.8550E+05   -6.6756E+05    0.0000E+00  setid=       0
 node=  4629 local x,y,z forces =   -5.2400E+05   -1.0129E+06    0.0000E+00  setid=       0
 node=  4630 local x,y,z forces =   -1.2724E+06   -3.8966E+05    0.0000E+00  setid=       0
 node=  4631 local x,y,z forces =   -1.5847E+06    2.3202E+05    0.0000E+00  setid=       0
 node=  4632 local x,y,z forces =   -1.2609E+06    8.3247E+05    0.0000E+00  setid=       0
 node=  4633 local x,y,z forces =   -4.2692E+05    1.4176E+06    0.0000E+00  setid=       0
 node=  4634 local x,y,z forces =    1.3197E+06    8.9293E+05    0.0000E+00  setid=       0
 node=  4635 local x,y,z forces =    4.8826E+05   -9.9330E+05    0.0000E+00  setid=       0
 node=  4636 local x,y,z forces =   -3.9063E+05   -1.5106E+06    0.0000E+00  setid=       0
 node=  4637 local x,y,z forces =   -8.1364E+05   -5.8536E+05    0.0000E+00  setid=       0
 node=  4638 local x,y,z forces =   -9.8761E+05    3.6027E+05    0.0000E+00  setid=       0
 node=  4639 local x,y,z forces =   -8.6062E+05    1.2788E+06    0.0000E+00  setid=       0
 node=  4640 local x,y,z forces =   -4.1398E+05    2.1436E+06    0.0000E+00  setid=       0
 node=  4641 local x,y,z forces =    6.4315E+05    1.3140E+06    0.0000E+00  setid=       0
             force resultants   =    8.1030E+03    6.9849E-10   -1.0168E+08
