 400x600                                                                 
                         ls-dyna smp.123264 d           date 01/12/2018

{BEGIN LEGEND}
 Entity #        Title
        0     bottom                                                                
        0     top                                                                   
        0     middle                                                                
{END LEGEND}

 single point constraint forces

 output at time =   0.00000E+00
 node=     1 local x,y,z forces =    0.0000E+00    0.0000E+00    0.0000E+00  setid=       0
 node=     2 local x,y,z forces =    0.0000E+00    0.0000E+00    0.0000E+00  setid=       0
 node=     3 local x,y,z forces =    0.0000E+00    0.0000E+00    0.0000E+00  setid=       0
 node=     4 local x,y,z forces =    0.0000E+00    0.0000E+00    0.0000E+00  setid=       0
 node=     5 local x,y,z forces =    0.0000E+00    0.0000E+00    0.0000E+00  setid=       0
 node=     6 local x,y,z forces =    0.0000E+00    0.0000E+00    0.0000E+00  setid=       0
 node=     7 local x,y,z forces =    0.0000E+00    0.0000E+00    0.0000E+00  setid=       0
 node=     8 local x,y,z forces =    0.0000E+00    0.0000E+00    0.0000E+00  setid=       0
 node=     9 local x,y,z forces =    0.0000E+00    0.0000E+00    0.0000E+00  setid=       0
 node=    10 local x,y,z forces =    0.0000E+00    0.0000E+00    0.0000E+00  setid=       0
 node=    11 local x,y,z forces =    0.0000E+00    0.0000E+00    0.0000E+00  setid=       0
 node=    12 local x,y,z forces =    0.0000E+00    0.0000E+00    0.0000E+00  setid=       0
 node=    13 local x,y,z forces =    0.0000E+00    0.0000E+00    0.0000E+00  setid=       0
 node=    14 local x,y,z forces =    0.0000E+00    0.0000E+00    0.0000E+00  setid=       0
 node=    15 local x,y,z forces =    0.0000E+00    0.0000E+00    0.0000E+00  setid=       0
 node=    16 local x,y,z forces =    0.0000E+00    0.0000E+00    0.0000E+00  setid=       0
 node=    17 local x,y,z forces =    0.0000E+00    0.0000E+00    0.0000E+00  setid=       0
 node=    18 local x,y,z forces =    0.0000E+00    0.0000E+00    0.0000E+00  setid=       0
 node=    19 local x,y,z forces =    0.0000E+00    0.0000E+00    0.0000E+00  setid=       0
 node=    20 local x,y,z forces =    0.0000E+00    0.0000E+00    0.0000E+00  setid=       0
 node=    21 local x,y,z forces =    0.0000E+00    0.0000E+00    0.0000E+00  setid=       0
 node=    22 local x,y,z forces =    0.0000E+00    0.0000E+00    0.0000E+00  setid=       0
 node=    23 local x,y,z forces =    0.0000E+00    0.0000E+00    0.0000E+00  setid=       0
 node=    24 local x,y,z forces =    0.0000E+00    0.0000E+00    0.0000E+00  setid=       0
 node=    25 local x,y,z forces =    0.0000E+00    0.0000E+00    0.0000E+00  setid=       0
 node=    26 local x,y,z forces =    0.0000E+00    0.0000E+00    0.0000E+00  setid=       0
 node=    27 local x,y,z forces =    0.0000E+00    0.0000E+00    0.0000E+00  setid=       0
 node=    28 local x,y,z forces =    0.0000E+00    0.0000E+00    0.0000E+00  setid=       0
 node=    29 local x,y,z forces =    0.0000E+00    0.0000E+00    0.0000E+00  setid=       0
 node=    30 local x,y,z forces =    0.0000E+00    0.0000E+00    0.0000E+00  setid=       0
 node=    31 local x,y,z forces =    0.0000E+00    0.0000E+00    0.0000E+00  setid=       0
 node=    32 local x,y,z forces =    0.0000E+00    0.0000E+00    0.0000E+00  setid=       0
 node=    33 local x,y,z forces =    0.0000E+00    0.0000E+00    0.0000E+00  setid=       0
 node=    34 local x,y,z forces =    0.0000E+00    0.0000E+00    0.0000E+00  setid=       0
 node=    35 local x,y,z forces =    0.0000E+00    0.0000E+00    0.0000E+00  setid=       0
 node=    36 local x,y,z forces =    0.0000E+00    0.0000E+00    0.0000E+00  setid=       0
 node=    37 local x,y,z forces =    0.0000E+00    0.0000E+00    0.0000E+00  setid=       0
 node=    38 local x,y,z forces =    0.0000E+00    0.0000E+00    0.0000E+00  setid=       0
 node=    39 local x,y,z forces =    0.0000E+00    0.0000E+00    0.0000E+00  setid=       0
 node=    40 local x,y,z forces =    0.0000E+00    0.0000E+00    0.0000E+00  setid=       0
 node=    41 local x,y,z forces =    0.0000E+00    0.0000E+00    0.0000E+00  setid=       0
 node=    42 local x,y,z forces =    0.0000E+00    0.0000E+00    0.0000E+00  setid=       0
 node=    43 local x,y,z forces =    0.0000E+00    0.0000E+00    0.0000E+00  setid=       0
 node=    44 local x,y,z forces =    0.0000E+00    0.0000E+00    0.0000E+00  setid=       0
 node=    45 local x,y,z forces =    0.0000E+00    0.0000E+00    0.0000E+00  setid=       0
 node=    46 local x,y,z forces =    0.0000E+00    0.0000E+00    0.0000E+00  setid=       0
 node=    47 local x,y,z forces =    0.0000E+00    0.0000E+00    0.0000E+00  setid=       0
 node=    48 local x,y,z forces =    0.0000E+00    0.0000E+00    0.0000E+00  setid=       0
 node=    49 local x,y,z forces =    0.0000E+00    0.0000E+00    0.0000E+00  setid=       0
 node=    50 local x,y,z forces =    0.0000E+00    0.0000E+00    0.0000E+00  setid=       0
 node=    51 local x,y,z forces =    0.0000E+00    0.0000E+00    0.0000E+00  setid=       0
 node=    52 local x,y,z forces =    0.0000E+00    0.0000E+00    0.0000E+00  setid=       0
 node=    53 local x,y,z forces =    0.0000E+00    0.0000E+00    0.0000E+00  setid=       0
 node=    54 local x,y,z forces =    0.0000E+00    0.0000E+00    0.0000E+00  setid=       0
 node=    55 local x,y,z forces =    0.0000E+00    0.0000E+00    0.0000E+00  setid=       0
 node=    56 local x,y,z forces =    0.0000E+00    0.0000E+00    0.0000E+00  setid=       0
 node=    57 local x,y,z forces =    0.0000E+00    0.0000E+00    0.0000E+00  setid=       0
 node=    58 local x,y,z forces =    0.0000E+00    0.0000E+00    0.0000E+00  setid=       0
 node=    59 local x,y,z forces =    0.0000E+00    0.0000E+00    0.0000E+00  setid=       0
 node=    60 local x,y,z forces =    0.0000E+00    0.0000E+00    0.0000E+00  setid=       0
 node=    61 local x,y,z forces =    0.0000E+00    0.0000E+00    0.0000E+00  setid=       0
 node=    62 local x,y,z forces =    0.0000E+00    0.0000E+00    0.0000E+00  setid=       0
 node=    63 local x,y,z forces =    0.0000E+00    0.0000E+00    0.0000E+00  setid=       0
 node=    64 local x,y,z forces =    0.0000E+00    0.0000E+00    0.0000E+00  setid=       0
 node=    65 local x,y,z forces =    0.0000E+00    0.0000E+00    0.0000E+00  setid=       0
 node=    66 local x,y,z forces =    0.0000E+00    0.0000E+00    0.0000E+00  setid=       0
 node=    67 local x,y,z forces =    0.0000E+00    0.0000E+00    0.0000E+00  setid=       0
 node=    68 local x,y,z forces =    0.0000E+00    0.0000E+00    0.0000E+00  setid=       0
 node=    69 local x,y,z forces =    0.0000E+00    0.0000E+00    0.0000E+00  setid=       0
 node=    70 local x,y,z forces =    0.0000E+00    0.0000E+00    0.0000E+00  setid=       0
 node=    71 local x,y,z forces =    0.0000E+00    0.0000E+00    0.0000E+00  setid=       0
 node=    72 local x,y,z forces =    0.0000E+00    0.0000E+00    0.0000E+00  setid=       0
 node=    73 local x,y,z forces =    0.0000E+00    0.0000E+00    0.0000E+00  setid=       0
 node=    74 local x,y,z forces =    0.0000E+00    0.0000E+00    0.0000E+00  setid=       0
 node=    75 local x,y,z forces =    0.0000E+00    0.0000E+00    0.0000E+00  setid=       0
 node=    76 local x,y,z forces =    0.0000E+00    0.0000E+00    0.0000E+00  setid=       0
 node=    77 local x,y,z forces =    0.0000E+00    0.0000E+00    0.0000E+00  setid=       0
 node=    78 local x,y,z forces =    0.0000E+00    0.0000E+00    0.0000E+00  setid=       0
 node=    79 local x,y,z forces =    0.0000E+00    0.0000E+00    0.0000E+00  setid=       0
 node=    80 local x,y,z forces =    0.0000E+00    0.0000E+00    0.0000E+00  setid=       0
 node=    81 local x,y,z forces =    0.0000E+00    0.0000E+00    0.0000E+00  setid=       0
 node=    82 local x,y,z forces =    0.0000E+00    0.0000E+00    0.0000E+00  setid=       0
 node=    83 local x,y,z forces =    0.0000E+00    0.0000E+00    0.0000E+00  setid=       0
 node=    84 local x,y,z forces =    0.0000E+00    0.0000E+00    0.0000E+00  setid=       0
 node=    85 local x,y,z forces =    0.0000E+00    0.0000E+00    0.0000E+00  setid=       0
 node=    86 local x,y,z forces =    0.0000E+00    0.0000E+00    0.0000E+00  setid=       0
 node=    87 local x,y,z forces =    0.0000E+00    0.0000E+00    0.0000E+00  setid=       0
 node=    88 local x,y,z forces =    0.0000E+00    0.0000E+00    0.0000E+00  setid=       0
 node=    89 local x,y,z forces =    0.0000E+00    0.0000E+00    0.0000E+00  setid=       0
 node=    90 local x,y,z forces =    0.0000E+00    0.0000E+00    0.0000E+00  setid=       0
 node=    91 local x,y,z forces =    0.0000E+00    0.0000E+00    0.0000E+00  setid=       0
 node=    92 local x,y,z forces =    0.0000E+00    0.0000E+00    0.0000E+00  setid=       0
 node=    93 local x,y,z forces =    0.0000E+00    0.0000E+00    0.0000E+00  setid=       0
 node=    94 local x,y,z forces =    0.0000E+00    0.0000E+00    0.0000E+00  setid=       0
 node=    95 local x,y,z forces =    0.0000E+00    0.0000E+00    0.0000E+00  setid=       0
 node=    96 local x,y,z forces =    0.0000E+00    0.0000E+00    0.0000E+00  setid=       0
 node=    97 local x,y,z forces =    0.0000E+00    0.0000E+00    0.0000E+00  setid=       0
 node=    98 local x,y,z forces =    0.0000E+00    0.0000E+00    0.0000E+00  setid=       0
 node=    99 local x,y,z forces =    0.0000E+00    0.0000E+00    0.0000E+00  setid=       0
 node=   100 local x,y,z forces =    0.0000E+00    0.0000E+00    0.0000E+00  setid=       0
 node=   101 local x,y,z forces =    0.0000E+00    0.0000E+00    0.0000E+00  setid=       0
 node=   102 local x,y,z forces =    0.0000E+00    0.0000E+00    0.0000E+00  setid=       0
 node=   103 local x,y,z forces =    0.0000E+00    0.0000E+00    0.0000E+00  setid=       0
 node=   104 local x,y,z forces =    0.0000E+00    0.0000E+00    0.0000E+00  setid=       0
 node=   105 local x,y,z forces =    0.0000E+00    0.0000E+00    0.0000E+00  setid=       0
 node=   106 local x,y,z forces =    0.0000E+00    0.0000E+00    0.0000E+00  setid=       0
 node=   107 local x,y,z forces =    0.0000E+00    0.0000E+00    0.0000E+00  setid=       0
 node=   108 local x,y,z forces =    0.0000E+00    0.0000E+00    0.0000E+00  setid=       0
 node=   109 local x,y,z forces =    0.0000E+00    0.0000E+00    0.0000E+00  setid=       0
 node=   110 local x,y,z forces =    0.0000E+00    0.0000E+00    0.0000E+00  setid=       0
 node=   111 local x,y,z forces =    0.0000E+00    0.0000E+00    0.0000E+00  setid=       0
 node=   112 local x,y,z forces =    0.0000E+00    0.0000E+00    0.0000E+00  setid=       0
 node=   113 local x,y,z forces =    0.0000E+00    0.0000E+00    0.0000E+00  setid=       0
 node=   114 local x,y,z forces =    0.0000E+00    0.0000E+00    0.0000E+00  setid=       0
 node=   115 local x,y,z forces =    0.0000E+00    0.0000E+00    0.0000E+00  setid=       0
 node=   116 local x,y,z forces =    0.0000E+00    0.0000E+00    0.0000E+00  setid=       0
 node=   117 local x,y,z forces =    0.0000E+00    0.0000E+00    0.0000E+00  setid=       0
 node=   118 local x,y,z forces =    0.0000E+00    0.0000E+00    0.0000E+00  setid=       0
 node=   119 local x,y,z forces =    0.0000E+00    0.0000E+00    0.0000E+00  setid=       0
 node=   120 local x,y,z forces =    0.0000E+00    0.0000E+00    0.0000E+00  setid=       0
 node=   121 local x,y,z forces =    0.0000E+00    0.0000E+00    0.0000E+00  setid=       0
 node=   122 local x,y,z forces =    0.0000E+00    0.0000E+00    0.0000E+00  setid=       0
 node=   123 local x,y,z forces =    0.0000E+00    0.0000E+00    0.0000E+00  setid=       0
 node=   124 local x,y,z forces =    0.0000E+00    0.0000E+00    0.0000E+00  setid=       0
 node=   125 local x,y,z forces =    0.0000E+00    0.0000E+00    0.0000E+00  setid=       0
 node=  6253 local x,y,z forces =    0.0000E+00    0.0000E+00    0.0000E+00  setid=       0
 node=  6258 local x,y,z forces =    0.0000E+00    0.0000E+00    0.0000E+00  setid=       0
 node=  6263 local x,y,z forces =    0.0000E+00    0.0000E+00    0.0000E+00  setid=       0
 node=  6268 local x,y,z forces =    0.0000E+00    0.0000E+00    0.0000E+00  setid=       0
 node=  6273 local x,y,z forces =    0.0000E+00    0.0000E+00    0.0000E+00  setid=       0
 node=  6278 local x,y,z forces =    0.0000E+00    0.0000E+00    0.0000E+00  setid=       0
 node=  6283 local x,y,z forces =    0.0000E+00    0.0000E+00    0.0000E+00  setid=       0
 node=  6288 local x,y,z forces =    0.0000E+00    0.0000E+00    0.0000E+00  setid=       0
 node=  6293 local x,y,z forces =    0.0000E+00    0.0000E+00    0.0000E+00  setid=       0
 node=  6298 local x,y,z forces =    0.0000E+00    0.0000E+00    0.0000E+00  setid=       0
 node=  6303 local x,y,z forces =    0.0000E+00    0.0000E+00    0.0000E+00  setid=       0
 node=  6308 local x,y,z forces =    0.0000E+00    0.0000E+00    0.0000E+00  setid=       0
 node=  6313 local x,y,z forces =    0.0000E+00    0.0000E+00    0.0000E+00  setid=       0
 node=  6318 local x,y,z forces =    0.0000E+00    0.0000E+00    0.0000E+00  setid=       0
 node=  6323 local x,y,z forces =    0.0000E+00    0.0000E+00    0.0000E+00  setid=       0
 node=  6328 local x,y,z forces =    0.0000E+00    0.0000E+00    0.0000E+00  setid=       0
 node=  6333 local x,y,z forces =    0.0000E+00    0.0000E+00    0.0000E+00  setid=       0
 node=  6338 local x,y,z forces =    0.0000E+00    0.0000E+00    0.0000E+00  setid=       0
 node=  6343 local x,y,z forces =    0.0000E+00    0.0000E+00    0.0000E+00  setid=       0
 node=  6348 local x,y,z forces =    0.0000E+00    0.0000E+00    0.0000E+00  setid=       0
 node=  6353 local x,y,z forces =    0.0000E+00    0.0000E+00    0.0000E+00  setid=       0
 node=  6358 local x,y,z forces =    0.0000E+00    0.0000E+00    0.0000E+00  setid=       0
 node=  6363 local x,y,z forces =    0.0000E+00    0.0000E+00    0.0000E+00  setid=       0
 node=  6368 local x,y,z forces =    0.0000E+00    0.0000E+00    0.0000E+00  setid=       0
 node=  6373 local x,y,z forces =    0.0000E+00    0.0000E+00    0.0000E+00  setid=       0
             force resultants   =    0.0000E+00    0.0000E+00    0.0000E+00
 output at time =   5.00000E-04
 node=     1 local x,y,z forces =   -6.2891E+03   -6.9855E+03   -1.3731E+04  setid=       0
 node=     2 local x,y,z forces =   -8.6508E+02   -1.3669E+04   -2.4328E+04  setid=       0
 node=     3 local x,y,z forces =   -3.6645E+01   -1.3410E+04   -2.3458E+04  setid=       0
 node=     4 local x,y,z forces =    8.0857E+02   -1.3741E+04   -2.4445E+04  setid=       0
 node=     5 local x,y,z forces =    6.3166E+03   -7.0394E+03   -1.3813E+04  setid=       0
 node=     6 local x,y,z forces =   -1.1282E+04   -2.1708E+03   -2.1522E+04  setid=       0
 node=     7 local x,y,z forces =   -1.6668E+03   -4.3693E+03   -3.6781E+04  setid=       0
 node=     8 local x,y,z forces =   -5.7447E+01   -4.4058E+03   -3.4925E+04  setid=       0
 node=     9 local x,y,z forces =    1.5758E+03   -4.4019E+03   -3.6967E+04  setid=       0
 node=    10 local x,y,z forces =    1.1341E+04   -2.1980E+03   -2.1659E+04  setid=       0
 node=    11 local x,y,z forces =   -9.9686E+03   -3.0079E+03   -1.8106E+04  setid=       0
 node=    12 local x,y,z forces =   -1.6205E+03   -6.0170E+03   -3.0065E+04  setid=       0
 node=    13 local x,y,z forces =   -3.8771E+01   -6.0330E+03   -2.8160E+04  setid=       0
 node=    14 local x,y,z forces =    1.5534E+03   -6.0604E+03   -3.0244E+04  setid=       0
 node=    15 local x,y,z forces =    1.0041E+04   -3.0420E+03   -1.8250E+04  setid=       0
 node=    16 local x,y,z forces =   -9.6697E+03   -2.3184E+03   -1.7908E+04  setid=       0
 node=    17 local x,y,z forces =   -1.5763E+03   -4.6314E+03   -2.9739E+04  setid=       0
 node=    18 local x,y,z forces =   -3.1858E+01   -4.6347E+03   -2.7825E+04  setid=       0
 node=    19 local x,y,z forces =    1.5156E+03   -4.6645E+03   -2.9945E+04  setid=       0
 node=    20 local x,y,z forces =    9.7565E+03   -2.3439E+03   -1.8080E+04  setid=       0
 node=    21 local x,y,z forces =   -9.4510E+03   -2.0615E+03   -1.7397E+04  setid=       0
 node=    22 local x,y,z forces =   -1.5454E+03   -4.1261E+03   -2.8743E+04  setid=       0
 node=    23 local x,y,z forces =   -2.8725E+01   -4.1353E+03   -2.6810E+04  setid=       0
 node=    24 local x,y,z forces =    1.4872E+03   -4.1532E+03   -2.8966E+04  setid=       0
 node=    25 local x,y,z forces =    9.5483E+03   -2.0823E+03   -1.7586E+04  setid=       0
 node=    26 local x,y,z forces =   -9.3463E+03   -1.6878E+03   -1.7298E+04  setid=       0
 node=    27 local x,y,z forces =   -1.5266E+03   -3.3780E+03   -2.8575E+04  setid=       0
 node=    28 local x,y,z forces =   -2.7589E+01   -3.3850E+03   -2.6638E+04  setid=       0
 node=    29 local x,y,z forces =    1.4684E+03   -3.3986E+03   -2.8814E+04  setid=       0
 node=    30 local x,y,z forces =    9.4516E+03   -1.7034E+03   -1.7503E+04  setid=       0
 node=    31 local x,y,z forces =   -9.2723E+03   -1.4225E+03   -1.7140E+04  setid=       0
 node=    32 local x,y,z forces =   -1.5144E+03   -2.8473E+03   -2.8277E+04  setid=       0
 node=    33 local x,y,z forces =   -2.7351E+01   -2.8542E+03   -2.6338E+04  setid=       0
 node=    34 local x,y,z forces =    1.4554E+03   -2.8632E+03   -2.8528E+04  setid=       0
 node=    35 local x,y,z forces =    9.3833E+03   -1.4346E+03   -1.7356E+04  setid=       0
 node=    36 local x,y,z forces =   -9.2294E+03   -1.1440E+03   -1.7093E+04  setid=       0
 node=    37 local x,y,z forces =   -1.5076E+03   -2.2893E+03   -2.8196E+04  setid=       0
 node=    38 local x,y,z forces =   -2.7574E+01   -2.2937E+03   -2.6256E+04  setid=       0
 node=    39 local x,y,z forces =    1.4475E+03   -2.3011E+03   -2.8456E+04  setid=       0
 node=    40 local x,y,z forces =    9.3447E+03   -1.1529E+03   -1.7317E+04  setid=       0
 node=    41 local x,y,z forces =   -9.1995E+03   -9.0299E+02   -1.7034E+04  setid=       0
 node=    42 local x,y,z forces =   -1.5032E+03   -1.8068E+03   -2.8086E+04  setid=       0
 node=    43 local x,y,z forces =   -2.7952E+01   -1.8101E+03   -2.6145E+04  setid=       0
 node=    44 local x,y,z forces =    1.4420E+03   -1.8155E+03   -2.8353E+04  setid=       0
 node=    45 local x,y,z forces =    9.3178E+03   -9.0956E+02   -1.7264E+04  setid=       0
 node=    46 local x,y,z forces =   -9.1812E+03   -6.6389E+02   -1.7013E+04  setid=       0
 node=    47 local x,y,z forces =   -1.5007E+03   -1.3283E+03   -2.8049E+04  setid=       0
 node=    48 local x,y,z forces =   -2.8350E+01   -1.3303E+03   -2.6107E+04  setid=       0
 node=    49 local x,y,z forces =    1.4385E+03   -1.3343E+03   -2.8321E+04  setid=       0
 node=    50 local x,y,z forces =    9.3018E+03   -6.6844E+02   -1.7247E+04  setid=       0
 node=    51 local x,y,z forces =   -9.1693E+03   -4.3962E+02   -1.6990E+04  setid=       0
 node=    52 local x,y,z forces =   -1.4991E+03   -8.7946E+02   -2.8006E+04  setid=       0
 node=    53 local x,y,z forces =   -2.8675E+01   -8.8075E+02   -2.6064E+04  setid=       0
 node=    54 local x,y,z forces =    1.4362E+03   -8.8330E+02   -2.8281E+04  setid=       0
 node=    55 local x,y,z forces =    9.2912E+03   -4.4250E+02   -1.7227E+04  setid=       0
 node=    56 local x,y,z forces =   -9.1631E+03   -2.1776E+02   -1.6984E+04  setid=       0
 node=    57 local x,y,z forces =   -1.4984E+03   -4.3563E+02   -2.7995E+04  setid=       0
 node=    58 local x,y,z forces =   -2.8886E+01   -4.3624E+02   -2.6052E+04  setid=       0
 node=    59 local x,y,z forces =    1.4349E+03   -4.3749E+02   -2.8272E+04  setid=       0
 node=    60 local x,y,z forces =    9.2858E+03   -2.1916E+02   -1.7223E+04  setid=       0
 node=    61 local x,y,z forces =   -9.1610E+03    8.7311E-11   -1.6978E+04  setid=       0
 node=    62 local x,y,z forces =   -1.4981E+03    1.0004E-10   -2.7984E+04  setid=       0
 node=    63 local x,y,z forces =   -2.8958E+01   -1.6371E-11   -2.6041E+04  setid=       0
 node=    64 local x,y,z forces =    1.4345E+03   -1.5643E-10   -2.8262E+04  setid=       0
 node=    65 local x,y,z forces =    9.2839E+03   -1.2187E-10   -1.7217E+04  setid=       0
 node=    66 local x,y,z forces =   -9.1631E+03    2.1776E+02   -1.6984E+04  setid=       0
 node=    67 local x,y,z forces =   -1.4984E+03    4.3563E+02   -2.7995E+04  setid=       0
 node=    68 local x,y,z forces =   -2.8886E+01    4.3624E+02   -2.6052E+04  setid=       0
 node=    69 local x,y,z forces =    1.4349E+03    4.3749E+02   -2.8272E+04  setid=       0
 node=    70 local x,y,z forces =    9.2858E+03    2.1916E+02   -1.7223E+04  setid=       0
 node=    71 local x,y,z forces =   -9.1693E+03    4.3962E+02   -1.6990E+04  setid=       0
 node=    72 local x,y,z forces =   -1.4991E+03    8.7946E+02   -2.8006E+04  setid=       0
 node=    73 local x,y,z forces =   -2.8675E+01    8.8075E+02   -2.6064E+04  setid=       0
 node=    74 local x,y,z forces =    1.4362E+03    8.8330E+02   -2.8281E+04  setid=       0
 node=    75 local x,y,z forces =    9.2912E+03    4.4250E+02   -1.7227E+04  setid=       0
 node=    76 local x,y,z forces =   -9.1812E+03    6.6389E+02   -1.7013E+04  setid=       0
 node=    77 local x,y,z forces =   -1.5007E+03    1.3283E+03   -2.8049E+04  setid=       0
 node=    78 local x,y,z forces =   -2.8350E+01    1.3303E+03   -2.6107E+04  setid=       0
 node=    79 local x,y,z forces =    1.4385E+03    1.3343E+03   -2.8321E+04  setid=       0
 node=    80 local x,y,z forces =    9.3018E+03    6.6844E+02   -1.7247E+04  setid=       0
 node=    81 local x,y,z forces =   -9.1995E+03    9.0299E+02   -1.7034E+04  setid=       0
 node=    82 local x,y,z forces =   -1.5032E+03    1.8068E+03   -2.8086E+04  setid=       0
 node=    83 local x,y,z forces =   -2.7952E+01    1.8101E+03   -2.6145E+04  setid=       0
 node=    84 local x,y,z forces =    1.4420E+03    1.8155E+03   -2.8353E+04  setid=       0
 node=    85 local x,y,z forces =    9.3178E+03    9.0956E+02   -1.7264E+04  setid=       0
 node=    86 local x,y,z forces =   -9.2294E+03    1.1440E+03   -1.7093E+04  setid=       0
 node=    87 local x,y,z forces =   -1.5076E+03    2.2893E+03   -2.8196E+04  setid=       0
 node=    88 local x,y,z forces =   -2.7574E+01    2.2937E+03   -2.6256E+04  setid=       0
 node=    89 local x,y,z forces =    1.4475E+03    2.3011E+03   -2.8456E+04  setid=       0
 node=    90 local x,y,z forces =    9.3447E+03    1.1529E+03   -1.7317E+04  setid=       0
 node=    91 local x,y,z forces =   -9.2723E+03    1.4225E+03   -1.7140E+04  setid=       0
 node=    92 local x,y,z forces =   -1.5144E+03    2.8473E+03   -2.8277E+04  setid=       0
 node=    93 local x,y,z forces =   -2.7351E+01    2.8542E+03   -2.6338E+04  setid=       0
 node=    94 local x,y,z forces =    1.4554E+03    2.8632E+03   -2.8528E+04  setid=       0
 node=    95 local x,y,z forces =    9.3833E+03    1.4346E+03   -1.7356E+04  setid=       0
 node=    96 local x,y,z forces =   -9.3463E+03    1.6878E+03   -1.7298E+04  setid=       0
 node=    97 local x,y,z forces =   -1.5266E+03    3.3780E+03   -2.8575E+04  setid=       0
 node=    98 local x,y,z forces =   -2.7589E+01    3.3850E+03   -2.6638E+04  setid=       0
 node=    99 local x,y,z forces =    1.4684E+03    3.3986E+03   -2.8814E+04  setid=       0
 node=   100 local x,y,z forces =    9.4516E+03    1.7034E+03   -1.7503E+04  setid=       0
 node=   101 local x,y,z forces =   -9.4510E+03    2.0615E+03   -1.7397E+04  setid=       0
 node=   102 local x,y,z forces =   -1.5454E+03    4.1261E+03   -2.8743E+04  setid=       0
 node=   103 local x,y,z forces =   -2.8725E+01    4.1353E+03   -2.6810E+04  setid=       0
 node=   104 local x,y,z forces =    1.4872E+03    4.1532E+03   -2.8966E+04  setid=       0
 node=   105 local x,y,z forces =    9.5483E+03    2.0823E+03   -1.7586E+04  setid=       0
 node=   106 local x,y,z forces =   -9.6697E+03    2.3184E+03   -1.7908E+04  setid=       0
 node=   107 local x,y,z forces =   -1.5763E+03    4.6314E+03   -2.9739E+04  setid=       0
 node=   108 local x,y,z forces =   -3.1858E+01    4.6347E+03   -2.7825E+04  setid=       0
 node=   109 local x,y,z forces =    1.5156E+03    4.6645E+03   -2.9945E+04  setid=       0
 node=   110 local x,y,z forces =    9.7565E+03    2.3439E+03   -1.8080E+04  setid=       0
 node=   111 local x,y,z forces =   -9.9686E+03    3.0079E+03   -1.8106E+04  setid=       0
 node=   112 local x,y,z forces =   -1.6205E+03    6.0170E+03   -3.0065E+04  setid=       0
 node=   113 local x,y,z forces =   -3.8771E+01    6.0330E+03   -2.8160E+04  setid=       0
 node=   114 local x,y,z forces =    1.5534E+03    6.0604E+03   -3.0244E+04  setid=       0
 node=   115 local x,y,z forces =    1.0041E+04    3.0420E+03   -1.8250E+04  setid=       0
 node=   116 local x,y,z forces =   -1.1282E+04    2.1708E+03   -2.1522E+04  setid=       0
 node=   117 local x,y,z forces =   -1.6668E+03    4.3693E+03   -3.6781E+04  setid=       0
 node=   118 local x,y,z forces =   -5.7447E+01    4.4058E+03   -3.4925E+04  setid=       0
 node=   119 local x,y,z forces =    1.5758E+03    4.4019E+03   -3.6967E+04  setid=       0
 node=   120 local x,y,z forces =    1.1341E+04    2.1980E+03   -2.1659E+04  setid=       0
 node=   121 local x,y,z forces =   -6.2891E+03    6.9855E+03   -1.3731E+04  setid=       0
 node=   122 local x,y,z forces =   -8.6508E+02    1.3669E+04   -2.4328E+04  setid=       0
 node=   123 local x,y,z forces =   -3.6645E+01    1.3410E+04   -2.3458E+04  setid=       0
 node=   124 local x,y,z forces =    8.0857E+02    1.3741E+04   -2.4445E+04  setid=       0
 node=   125 local x,y,z forces =    6.3166E+03    7.0394E+03   -1.3813E+04  setid=       0
 node=  6253 local x,y,z forces =    9.8185E+00   -2.5247E+04    0.0000E+00  setid=       0
 node=  6258 local x,y,z forces =    1.4775E+01   -2.0708E+04    0.0000E+00  setid=       0
 node=  6263 local x,y,z forces =    9.8520E+00   -1.4389E+04    0.0000E+00  setid=       0
 node=  6268 local x,y,z forces =    7.2755E+00   -1.2526E+04    0.0000E+00  setid=       0
 node=  6273 local x,y,z forces =    5.8239E+00   -1.1838E+04    0.0000E+00  setid=       0
 node=  6278 local x,y,z forces =    5.2095E+00   -1.0099E+04    0.0000E+00  setid=       0
 node=  6283 local x,y,z forces =    4.8183E+00   -8.7885E+03    0.0000E+00  setid=       0
 node=  6288 local x,y,z forces =    4.6390E+00   -7.1943E+03    0.0000E+00  setid=       0
 node=  6293 local x,y,z forces =    4.5145E+00   -5.7777E+03    0.0000E+00  setid=       0
 node=  6298 local x,y,z forces =    4.4549E+00   -4.2920E+03    0.0000E+00  setid=       0
 node=  6303 local x,y,z forces =    4.4119E+00   -2.8647E+03    0.0000E+00  setid=       0
 node=  6308 local x,y,z forces =    4.3950E+00   -1.4254E+03    0.0000E+00  setid=       0
 node=  6313 local x,y,z forces =    4.3861E+00   -5.7116E-10    0.0000E+00  setid=       0
 node=  6318 local x,y,z forces =    4.3950E+00    1.4254E+03    0.0000E+00  setid=       0
 node=  6323 local x,y,z forces =    4.4119E+00    2.8647E+03    0.0000E+00  setid=       0
 node=  6328 local x,y,z forces =    4.4549E+00    4.2920E+03    0.0000E+00  setid=       0
 node=  6333 local x,y,z forces =    4.5145E+00    5.7777E+03    0.0000E+00  setid=       0
 node=  6338 local x,y,z forces =    4.6390E+00    7.1943E+03    0.0000E+00  setid=       0
 node=  6343 local x,y,z forces =    4.8183E+00    8.7885E+03    0.0000E+00  setid=       0
 node=  6348 local x,y,z forces =    5.2095E+00    1.0099E+04    0.0000E+00  setid=       0
 node=  6353 local x,y,z forces =    5.8239E+00    1.1838E+04    0.0000E+00  setid=       0
 node=  6358 local x,y,z forces =    7.2755E+00    1.2526E+04    0.0000E+00  setid=       0
 node=  6363 local x,y,z forces =    9.8520E+00    1.4389E+04    0.0000E+00  setid=       0
 node=  6368 local x,y,z forces =    1.4775E+01    2.0708E+04    0.0000E+00  setid=       0
 node=  6373 local x,y,z forces =    9.8185E+00    2.5247E+04    0.0000E+00  setid=       0
             force resultants   =    2.1086E+02    2.2814E-08   -2.9964E+06
 output at time =   1.00000E-03
 node=     1 local x,y,z forces =   -5.5463E+02    4.6492E+03    3.6298E+03  setid=       0
 node=     2 local x,y,z forces =   -1.3498E+04    1.8000E+03    7.4990E+02  setid=       0
 node=     3 local x,y,z forces =   -1.6592E+04   -1.3697E+04   -2.3909E+04  setid=       0
 node=     4 local x,y,z forces =   -1.1718E+04   -2.9762E+04   -5.0428E+04  setid=       0
 node=     5 local x,y,z forces =    1.2291E+04   -1.8965E+04   -3.1761E+04  setid=       0
 node=     6 local x,y,z forces =    1.1344E+03    3.8560E+03    7.0911E+03  setid=       0
 node=     7 local x,y,z forces =   -2.1959E+04    2.8976E+03    2.8735E+03  setid=       0
 node=     8 local x,y,z forces =   -2.6009E+04   -4.4798E+03   -3.5578E+04  setid=       0
 node=     9 local x,y,z forces =   -1.8541E+04   -1.1849E+04   -7.7916E+04  setid=       0
 node=    10 local x,y,z forces =    2.4189E+04   -8.3506E+03   -5.1161E+04  setid=       0
 node=    11 local x,y,z forces =    5.4648E+03    4.6395E+03    1.2470E+04  setid=       0
 node=    12 local x,y,z forces =   -1.6489E+04    3.7103E+03    8.3783E+03  setid=       0
 node=    13 local x,y,z forces =   -1.7482E+04   -6.1821E+03   -2.8663E+04  setid=       0
 node=    14 local x,y,z forces =   -1.3163E+04   -1.6099E+04   -6.9666E+04  setid=       0
 node=    15 local x,y,z forces =    2.5914E+04   -1.0840E+04   -4.9585E+04  setid=       0
 node=    16 local x,y,z forces =    9.0651E+03    3.4526E+03    1.8938E+04  setid=       0
 node=    17 local x,y,z forces =   -1.4968E+04    2.8735E+03    1.4724E+04  setid=       0
 node=    18 local x,y,z forces =   -1.4292E+04   -4.7538E+03   -2.8339E+04  setid=       0
 node=    19 local x,y,z forces =   -1.1780E+04   -1.2416E+04   -7.5382E+04  setid=       0
 node=    20 local x,y,z forces =    2.8939E+04   -8.2340E+03   -5.5744E+04  setid=       0
 node=    21 local x,y,z forces =    1.1724E+04    2.6678E+03    2.3568E+04  setid=       0
 node=    22 local x,y,z forces =   -1.4349E+04    2.0423E+03    1.9713E+04  setid=       0
 node=    23 local x,y,z forces =   -1.2824E+04   -4.2470E+03   -2.7314E+04  setid=       0
 node=    24 local x,y,z forces =   -1.1235E+04   -1.0551E+04   -7.8365E+04  setid=       0
 node=    25 local x,y,z forces =    3.1194E+04   -6.9214E+03   -5.9394E+04  setid=       0
 node=    26 local x,y,z forces =    1.3692E+04    1.8910E+03    2.7274E+04  setid=       0
 node=    27 local x,y,z forces =   -1.4315E+04    1.3274E+03    2.3702E+04  setid=       0
 node=    28 local x,y,z forces =   -1.2275E+04   -3.4798E+03   -2.7151E+04  setid=       0
 node=    29 local x,y,z forces =   -1.1259E+04   -8.2961E+03   -8.2042E+04  setid=       0
 node=    30 local x,y,z forces =    3.2975E+04   -5.3756E+03   -6.2956E+04  setid=       0
 node=    31 local x,y,z forces =    1.5132E+04    1.3458E+03    2.9977E+04  setid=       0
 node=    32 local x,y,z forces =   -1.4472E+04    8.0601E+02    2.6734E+04  setid=       0
 node=    33 local x,y,z forces =   -1.2143E+04   -2.9363E+03   -2.6855E+04  setid=       0
 node=    34 local x,y,z forces =   -1.1449E+04   -6.6823E+03   -8.4493E+04  setid=       0
 node=    35 local x,y,z forces =    3.4289E+04   -4.2841E+03   -6.5380E+04  setid=       0
 node=    36 local x,y,z forces =    1.6185E+04    9.1506E+02    3.2031E+04  setid=       0
 node=    37 local x,y,z forces =   -1.4720E+04    4.3768E+02    2.9052E+04  setid=       0
 node=    38 local x,y,z forces =   -1.2229E+04   -2.3612E+03   -2.6780E+04  setid=       0
 node=    39 local x,y,z forces =   -1.1720E+04   -5.1636E+03   -8.6670E+04  setid=       0
 node=    40 local x,y,z forces =    3.5272E+04   -3.2791E+03   -6.7373E+04  setid=       0
 node=    41 local x,y,z forces =    1.6943E+04    6.1381E+02    3.3511E+04  setid=       0
 node=    42 local x,y,z forces =   -1.4969E+04    2.0710E+02    3.0764E+04  setid=       0
 node=    43 local x,y,z forces =   -1.2390E+04   -1.8642E+03   -2.6674E+04  setid=       0
 node=    44 local x,y,z forces =   -1.1981E+04   -3.9378E+03   -8.8175E+04  setid=       0
 node=    45 local x,y,z forces =    3.5984E+04   -2.4805E+03   -6.8757E+04  setid=       0
 node=    46 local x,y,z forces =    1.7476E+04    3.8957E+02    3.4573E+04  setid=       0
 node=    47 local x,y,z forces =   -1.5187E+04    7.3091E+01    3.2000E+04  setid=       0
 node=    48 local x,y,z forces =   -1.2565E+04   -1.3706E+03   -2.6641E+04  setid=       0
 node=    49 local x,y,z forces =   -1.2208E+04   -2.8161E+03   -8.9350E+04  setid=       0
 node=    50 local x,y,z forces =    3.6489E+04   -1.7624E+03   -6.9796E+04  setid=       0
 node=    51 local x,y,z forces =    1.7827E+04    2.2965E+02    3.5273E+04  setid=       0
 node=    52 local x,y,z forces =   -1.5351E+04    1.2055E+01    3.2825E+04  setid=       0
 node=    53 local x,y,z forces =   -1.2709E+04   -9.0764E+02   -2.6601E+04  setid=       0
 node=    54 local x,y,z forces =   -1.2377E+04   -1.8285E+03   -9.0100E+04  setid=       0
 node=    55 local x,y,z forces =    3.6824E+04   -1.1389E+03   -7.0462E+04  setid=       0
 node=    56 local x,y,z forces =    1.8027E+04    1.0517E+02    3.5678E+04  setid=       0
 node=    57 local x,y,z forces =   -1.5453E+04   -5.1610E+00    3.3304E+04  setid=       0
 node=    58 local x,y,z forces =   -1.2803E+04   -4.4963E+02   -2.6592E+04  setid=       0
 node=    59 local x,y,z forces =   -1.2482E+04   -8.9464E+02   -9.0562E+04  setid=       0
 node=    60 local x,y,z forces =    3.7015E+04   -5.5562E+02   -7.0862E+04  setid=       0
 node=    61 local x,y,z forces =    1.8092E+04    3.7835E-10    3.5807E+04  setid=       0
 node=    62 local x,y,z forces =   -1.5487E+04   -3.2969E-10    3.3458E+04  setid=       0
 node=    63 local x,y,z forces =   -1.2835E+04    2.2555E-10   -2.6581E+04  setid=       0
 node=    64 local x,y,z forces =   -1.2517E+04   -2.8376E-10   -9.0696E+04  setid=       0
 node=    65 local x,y,z forces =    3.7077E+04    2.4011E-10   -7.0982E+04  setid=       0
 node=    66 local x,y,z forces =    1.8027E+04   -1.0517E+02    3.5678E+04  setid=       0
 node=    67 local x,y,z forces =   -1.5453E+04    5.1610E+00    3.3304E+04  setid=       0
 node=    68 local x,y,z forces =   -1.2803E+04    4.4963E+02   -2.6592E+04  setid=       0
 node=    69 local x,y,z forces =   -1.2482E+04    8.9464E+02   -9.0562E+04  setid=       0
 node=    70 local x,y,z forces =    3.7015E+04    5.5562E+02   -7.0862E+04  setid=       0
 node=    71 local x,y,z forces =    1.7827E+04   -2.2965E+02    3.5273E+04  setid=       0
 node=    72 local x,y,z forces =   -1.5351E+04   -1.2055E+01    3.2825E+04  setid=       0
 node=    73 local x,y,z forces =   -1.2709E+04    9.0764E+02   -2.6601E+04  setid=       0
 node=    74 local x,y,z forces =   -1.2377E+04    1.8285E+03   -9.0100E+04  setid=       0
 node=    75 local x,y,z forces =    3.6824E+04    1.1389E+03   -7.0462E+04  setid=       0
 node=    76 local x,y,z forces =    1.7476E+04   -3.8957E+02    3.4573E+04  setid=       0
 node=    77 local x,y,z forces =   -1.5187E+04   -7.3091E+01    3.2000E+04  setid=       0
 node=    78 local x,y,z forces =   -1.2565E+04    1.3706E+03   -2.6641E+04  setid=       0
 node=    79 local x,y,z forces =   -1.2208E+04    2.8161E+03   -8.9350E+04  setid=       0
 node=    80 local x,y,z forces =    3.6489E+04    1.7624E+03   -6.9796E+04  setid=       0
 node=    81 local x,y,z forces =    1.6943E+04   -6.1381E+02    3.3511E+04  setid=       0
 node=    82 local x,y,z forces =   -1.4969E+04   -2.0710E+02    3.0764E+04  setid=       0
 node=    83 local x,y,z forces =   -1.2390E+04    1.8642E+03   -2.6674E+04  setid=       0
 node=    84 local x,y,z forces =   -1.1981E+04    3.9378E+03   -8.8175E+04  setid=       0
 node=    85 local x,y,z forces =    3.5984E+04    2.4805E+03   -6.8757E+04  setid=       0
 node=    86 local x,y,z forces =    1.6185E+04   -9.1506E+02    3.2031E+04  setid=       0
 node=    87 local x,y,z forces =   -1.4720E+04   -4.3768E+02    2.9052E+04  setid=       0
 node=    88 local x,y,z forces =   -1.2229E+04    2.3612E+03   -2.6780E+04  setid=       0
 node=    89 local x,y,z forces =   -1.1720E+04    5.1636E+03   -8.6670E+04  setid=       0
 node=    90 local x,y,z forces =    3.5272E+04    3.2791E+03   -6.7373E+04  setid=       0
 node=    91 local x,y,z forces =    1.5132E+04   -1.3458E+03    2.9977E+04  setid=       0
 node=    92 local x,y,z forces =   -1.4472E+04   -8.0601E+02    2.6734E+04  setid=       0
 node=    93 local x,y,z forces =   -1.2143E+04    2.9363E+03   -2.6855E+04  setid=       0
 node=    94 local x,y,z forces =   -1.1449E+04    6.6823E+03   -8.4493E+04  setid=       0
 node=    95 local x,y,z forces =    3.4289E+04    4.2841E+03   -6.5380E+04  setid=       0
 node=    96 local x,y,z forces =    1.3692E+04   -1.8910E+03    2.7274E+04  setid=       0
 node=    97 local x,y,z forces =   -1.4315E+04   -1.3274E+03    2.3702E+04  setid=       0
 node=    98 local x,y,z forces =   -1.2275E+04    3.4798E+03   -2.7151E+04  setid=       0
 node=    99 local x,y,z forces =   -1.1259E+04    8.2961E+03   -8.2042E+04  setid=       0
 node=   100 local x,y,z forces =    3.2975E+04    5.3756E+03   -6.2956E+04  setid=       0
 node=   101 local x,y,z forces =    1.1724E+04   -2.6678E+03    2.3568E+04  setid=       0
 node=   102 local x,y,z forces =   -1.4349E+04   -2.0423E+03    1.9713E+04  setid=       0
 node=   103 local x,y,z forces =   -1.2824E+04    4.2470E+03   -2.7314E+04  setid=       0
 node=   104 local x,y,z forces =   -1.1235E+04    1.0551E+04   -7.8365E+04  setid=       0
 node=   105 local x,y,z forces =    3.1194E+04    6.9214E+03   -5.9394E+04  setid=       0
 node=   106 local x,y,z forces =    9.0651E+03   -3.4526E+03    1.8938E+04  setid=       0
 node=   107 local x,y,z forces =   -1.4968E+04   -2.8735E+03    1.4724E+04  setid=       0
 node=   108 local x,y,z forces =   -1.4292E+04    4.7538E+03   -2.8339E+04  setid=       0
 node=   109 local x,y,z forces =   -1.1780E+04    1.2416E+04   -7.5382E+04  setid=       0
 node=   110 local x,y,z forces =    2.8939E+04    8.2340E+03   -5.5744E+04  setid=       0
 node=   111 local x,y,z forces =    5.4648E+03   -4.6395E+03    1.2470E+04  setid=       0
 node=   112 local x,y,z forces =   -1.6489E+04   -3.7103E+03    8.3783E+03  setid=       0
 node=   113 local x,y,z forces =   -1.7482E+04    6.1821E+03   -2.8663E+04  setid=       0
 node=   114 local x,y,z forces =   -1.3163E+04    1.6099E+04   -6.9666E+04  setid=       0
 node=   115 local x,y,z forces =    2.5914E+04    1.0840E+04   -4.9585E+04  setid=       0
 node=   116 local x,y,z forces =    1.1344E+03   -3.8560E+03    7.0911E+03  setid=       0
 node=   117 local x,y,z forces =   -2.1959E+04   -2.8976E+03    2.8735E+03  setid=       0
 node=   118 local x,y,z forces =   -2.6009E+04    4.4798E+03   -3.5578E+04  setid=       0
 node=   119 local x,y,z forces =   -1.8541E+04    1.1849E+04   -7.7916E+04  setid=       0
 node=   120 local x,y,z forces =    2.4189E+04    8.3506E+03   -5.1161E+04  setid=       0
 node=   121 local x,y,z forces =   -5.5463E+02   -4.6492E+03    3.6298E+03  setid=       0
 node=   122 local x,y,z forces =   -1.3498E+04   -1.8000E+03    7.4990E+02  setid=       0
 node=   123 local x,y,z forces =   -1.6592E+04    1.3697E+04   -2.3909E+04  setid=       0
 node=   124 local x,y,z forces =   -1.1718E+04    2.9762E+04   -5.0428E+04  setid=       0
 node=   125 local x,y,z forces =    1.2291E+04    1.8965E+04   -3.1761E+04  setid=       0
 node=  6253 local x,y,z forces =    4.2083E+03   -2.5740E+04    0.0000E+00  setid=       0
 node=  6258 local x,y,z forces =    4.1174E+03   -2.1113E+04    0.0000E+00  setid=       0
 node=  6263 local x,y,z forces =    8.6677E+02   -1.4673E+04    0.0000E+00  setid=       0
 node=  6268 local x,y,z forces =   -7.5508E+02   -1.2774E+04    0.0000E+00  setid=       0
 node=  6273 local x,y,z forces =   -1.6467E+03   -1.2073E+04    0.0000E+00  setid=       0
 node=  6278 local x,y,z forces =   -2.0037E+03   -1.0300E+04    0.0000E+00  setid=       0
 node=  6283 local x,y,z forces =   -2.2338E+03   -8.9641E+03    0.0000E+00  setid=       0
 node=  6288 local x,y,z forces =   -2.3259E+03   -7.3384E+03    0.0000E+00  setid=       0
 node=  6293 local x,y,z forces =   -2.3910E+03   -5.8937E+03    0.0000E+00  setid=       0
 node=  6298 local x,y,z forces =   -2.4159E+03   -4.3784E+03    0.0000E+00  setid=       0
 node=  6303 local x,y,z forces =   -2.4358E+03   -2.9224E+03    0.0000E+00  setid=       0
 node=  6308 local x,y,z forces =   -2.4412E+03   -1.4542E+03    0.0000E+00  setid=       0
 node=  6313 local x,y,z forces =   -2.4457E+03    1.1649E-08    0.0000E+00  setid=       0
 node=  6318 local x,y,z forces =   -2.4412E+03    1.4542E+03    0.0000E+00  setid=       0
 node=  6323 local x,y,z forces =   -2.4358E+03    2.9224E+03    0.0000E+00  setid=       0
 node=  6328 local x,y,z forces =   -2.4159E+03    4.3784E+03    0.0000E+00  setid=       0
 node=  6333 local x,y,z forces =   -2.3910E+03    5.8937E+03    0.0000E+00  setid=       0
 node=  6338 local x,y,z forces =   -2.3259E+03    7.3384E+03    0.0000E+00  setid=       0
 node=  6343 local x,y,z forces =   -2.2338E+03    8.9641E+03    0.0000E+00  setid=       0
 node=  6348 local x,y,z forces =   -2.0037E+03    1.0300E+04    0.0000E+00  setid=       0
 node=  6353 local x,y,z forces =   -1.6467E+03    1.2073E+04    0.0000E+00  setid=       0
 node=  6358 local x,y,z forces =   -7.5508E+02    1.2774E+04    0.0000E+00  setid=       0
 node=  6363 local x,y,z forces =    8.6677E+02    1.4673E+04    0.0000E+00  setid=       0
 node=  6368 local x,y,z forces =    4.1174E+03    2.1113E+04    0.0000E+00  setid=       0
 node=  6373 local x,y,z forces =    4.2083E+03    2.5740E+04    0.0000E+00  setid=       0
             force resultants   =    3.4801E+01   -2.4520E-09   -3.0563E+06
 output at time =   1.50000E-03
 node=     1 local x,y,z forces =    1.9200E+03    9.6144E+03    1.1061E+04  setid=       0
 node=     2 local x,y,z forces =   -1.8844E+04    8.4408E+03    1.1558E+04  setid=       0
 node=     3 local x,y,z forces =   -2.3580E+04   -1.3720E+04   -2.3896E+04  setid=       0
 node=     4 local x,y,z forces =   -1.6991E+04   -3.6413E+04   -6.1174E+04  setid=       0
 node=     5 local x,y,z forces =    1.4759E+04   -2.3944E+04   -3.9234E+04  setid=       0
 node=     6 local x,y,z forces =    6.4722E+03    6.4069E+03    1.9340E+04  setid=       0
 node=     7 local x,y,z forces =   -3.0543E+04    6.0002E+03    1.9970E+04  setid=       0
 node=     8 local x,y,z forces =   -3.6963E+04   -4.4661E+03   -3.5540E+04  setid=       0
 node=     9 local x,y,z forces =   -2.7013E+04   -1.4957E+04   -9.4845E+04  setid=       0
 node=    10 local x,y,z forces =    2.9515E+04   -1.0941E+04   -6.3444E+04  setid=       0
 node=    11 local x,y,z forces =    1.2048E+04    7.8833E+03    2.5518E+04  setid=       0
 node=    12 local x,y,z forces =   -2.2777E+04    7.8450E+03    2.4922E+04  setid=       0
 node=    13 local x,y,z forces =   -2.4845E+04   -6.2123E+03   -2.8608E+04  setid=       0
 node=    14 local x,y,z forces =   -1.9361E+04   -2.0307E+04   -8.5991E+04  setid=       0
 node=    15 local x,y,z forces =    3.2545E+04   -1.4116E+04   -6.2671E+04  setid=       0
 node=    16 local x,y,z forces =    1.7033E+04    5.8999E+03    3.4611E+04  setid=       0
 node=    17 local x,y,z forces =   -2.0616E+04    6.0612E+03    3.3803E+04  setid=       0
 node=    18 local x,y,z forces =   -2.0312E+04   -4.7817E+03   -2.8303E+04  setid=       0
 node=    19 local x,y,z forces =   -1.7395E+04   -1.5668E+04   -9.4251E+04  setid=       0
 node=    20 local x,y,z forces =    3.6975E+04   -1.0709E+04   -7.1522E+04  setid=       0
 node=    21 local x,y,z forces =    2.0709E+04    4.6728E+03    4.0962E+04  setid=       0
 node=    22 local x,y,z forces =   -1.9744E+04    4.6609E+03    4.0468E+04  setid=       0
 node=    23 local x,y,z forces =   -1.8226E+04   -4.2774E+03   -2.7287E+04  setid=       0
 node=    24 local x,y,z forces =   -1.6612E+04   -1.3236E+04   -9.8916E+04  setid=       0
 node=    25 local x,y,z forces =    4.0281E+04   -8.9549E+03   -7.6939E+04  setid=       0
 node=    26 local x,y,z forces =    2.3457E+04    3.4077E+03    4.6178E+04  setid=       0
 node=    27 local x,y,z forces =   -1.9698E+04    3.3243E+03    4.6063E+04  setid=       0
 node=    28 local x,y,z forces =   -1.7446E+04   -3.5081E+03   -2.7137E+04  setid=       0
 node=    29 local x,y,z forces =   -1.6644E+04   -1.0352E+04   -1.0422E+05  setid=       0
 node=    30 local x,y,z forces =    4.2861E+04   -6.9192E+03   -8.2053E+04  setid=       0
 node=    31 local x,y,z forces =    2.5467E+04    2.5187E+03    4.9944E+04  setid=       0
 node=    32 local x,y,z forces =   -1.9924E+04    2.3560E+03    5.0242E+04  setid=       0
 node=    33 local x,y,z forces =   -1.7258E+04   -2.9624E+03   -2.6851E+04  setid=       0
 node=    34 local x,y,z forces =   -1.6911E+04   -8.2860E+03   -1.0783E+05  setid=       0
 node=    35 local x,y,z forces =    4.4765E+04   -5.4823E+03   -8.5573E+04  setid=       0
 node=    36 local x,y,z forces =    2.6942E+04    1.7871E+03    5.2837E+04  setid=       0
 node=    37 local x,y,z forces =   -2.0277E+04    1.5944E+03    5.3500E+04  setid=       0
 node=    38 local x,y,z forces =   -1.7380E+04   -2.3836E+03   -2.6785E+04  setid=       0
 node=    39 local x,y,z forces =   -1.7294E+04   -6.3657E+03   -1.1096E+05  setid=       0
 node=    40 local x,y,z forces =    4.6183E+04   -4.1733E+03   -8.8431E+04  setid=       0
 node=    41 local x,y,z forces =    2.8004E+04    1.2560E+03    5.4909E+04  setid=       0
 node=    42 local x,y,z forces =   -2.0631E+04    1.0612E+03    5.5882E+04  setid=       0
 node=    43 local x,y,z forces =   -1.7609E+04   -1.8828E+03   -2.6687E+04  setid=       0
 node=    44 local x,y,z forces =   -1.7665E+04   -4.8293E+03   -1.1315E+05  setid=       0
 node=    45 local x,y,z forces =    4.7211E+04   -3.1414E+03   -9.0428E+04  setid=       0
 node=    46 local x,y,z forces =    2.8751E+04    8.3548E+02    5.6407E+04  setid=       0
 node=    47 local x,y,z forces =   -2.0942E+04    6.6730E+02    5.7621E+04  setid=       0
 node=    48 local x,y,z forces =   -1.7858E+04   -1.3848E+03   -2.6659E+04  setid=       0
 node=    49 local x,y,z forces =   -1.7987E+04   -3.4386E+03   -1.1484E+05  setid=       0
 node=    50 local x,y,z forces =    4.7939E+04   -2.2227E+03   -9.1918E+04  setid=       0
 node=    51 local x,y,z forces =    2.9243E+04    5.1288E+02    5.7389E+04  setid=       0
 node=    52 local x,y,z forces =   -2.1175E+04    3.9003E+02    5.8775E+04  setid=       0
 node=    53 local x,y,z forces =   -1.8063E+04   -9.1726E+02   -2.6623E+04  setid=       0
 node=    54 local x,y,z forces =   -1.8227E+04   -2.2256E+03   -1.1592E+05  setid=       0
 node=    55 local x,y,z forces =    4.8421E+04   -1.4320E+03   -9.2877E+04  setid=       0
 node=    56 local x,y,z forces =    2.9524E+04    2.4182E+02    5.7960E+04  setid=       0
 node=    57 local x,y,z forces =   -2.1320E+04    1.7734E+02    5.9449E+04  setid=       0
 node=    58 local x,y,z forces =   -1.8197E+04   -4.5447E+02   -2.6616E+04  setid=       0
 node=    59 local x,y,z forces =   -1.8375E+04   -1.0867E+03   -1.1658E+05  setid=       0
 node=    60 local x,y,z forces =    4.8697E+04   -6.9725E+02   -9.3449E+04  setid=       0
 node=    61 local x,y,z forces =    2.9615E+04    2.9104E-11    5.8141E+04  setid=       0
 node=    62 local x,y,z forces =   -2.1369E+04   -1.0186E-09    5.9663E+04  setid=       0
 node=    63 local x,y,z forces =   -1.8242E+04    7.6034E-10   -2.6607E+04  setid=       0
 node=    64 local x,y,z forces =   -1.8425E+04   -4.3656E-10   -1.1678E+05  setid=       0
 node=    65 local x,y,z forces =    4.8786E+04    6.4028E-10   -9.3622E+04  setid=       0
 node=    66 local x,y,z forces =    2.9524E+04   -2.4182E+02    5.7960E+04  setid=       0
 node=    67 local x,y,z forces =   -2.1320E+04   -1.7734E+02    5.9449E+04  setid=       0
 node=    68 local x,y,z forces =   -1.8197E+04    4.5447E+02   -2.6616E+04  setid=       0
 node=    69 local x,y,z forces =   -1.8375E+04    1.0867E+03   -1.1658E+05  setid=       0
 node=    70 local x,y,z forces =    4.8697E+04    6.9725E+02   -9.3449E+04  setid=       0
 node=    71 local x,y,z forces =    2.9243E+04   -5.1288E+02    5.7389E+04  setid=       0
 node=    72 local x,y,z forces =   -2.1175E+04   -3.9003E+02    5.8775E+04  setid=       0
 node=    73 local x,y,z forces =   -1.8063E+04    9.1726E+02   -2.6623E+04  setid=       0
 node=    74 local x,y,z forces =   -1.8227E+04    2.2256E+03   -1.1592E+05  setid=       0
 node=    75 local x,y,z forces =    4.8421E+04    1.4320E+03   -9.2877E+04  setid=       0
 node=    76 local x,y,z forces =    2.8751E+04   -8.3548E+02    5.6407E+04  setid=       0
 node=    77 local x,y,z forces =   -2.0942E+04   -6.6730E+02    5.7621E+04  setid=       0
 node=    78 local x,y,z forces =   -1.7858E+04    1.3848E+03   -2.6659E+04  setid=       0
 node=    79 local x,y,z forces =   -1.7987E+04    3.4386E+03   -1.1484E+05  setid=       0
 node=    80 local x,y,z forces =    4.7939E+04    2.2227E+03   -9.1918E+04  setid=       0
 node=    81 local x,y,z forces =    2.8004E+04   -1.2560E+03    5.4909E+04  setid=       0
 node=    82 local x,y,z forces =   -2.0631E+04   -1.0612E+03    5.5882E+04  setid=       0
 node=    83 local x,y,z forces =   -1.7609E+04    1.8828E+03   -2.6687E+04  setid=       0
 node=    84 local x,y,z forces =   -1.7665E+04    4.8293E+03   -1.1315E+05  setid=       0
 node=    85 local x,y,z forces =    4.7211E+04    3.1414E+03   -9.0428E+04  setid=       0
 node=    86 local x,y,z forces =    2.6942E+04   -1.7871E+03    5.2837E+04  setid=       0
 node=    87 local x,y,z forces =   -2.0277E+04   -1.5944E+03    5.3500E+04  setid=       0
 node=    88 local x,y,z forces =   -1.7380E+04    2.3836E+03   -2.6785E+04  setid=       0
 node=    89 local x,y,z forces =   -1.7294E+04    6.3657E+03   -1.1096E+05  setid=       0
 node=    90 local x,y,z forces =    4.6183E+04    4.1733E+03   -8.8431E+04  setid=       0
 node=    91 local x,y,z forces =    2.5467E+04   -2.5187E+03    4.9944E+04  setid=       0
 node=    92 local x,y,z forces =   -1.9924E+04   -2.3560E+03    5.0242E+04  setid=       0
 node=    93 local x,y,z forces =   -1.7258E+04    2.9624E+03   -2.6851E+04  setid=       0
 node=    94 local x,y,z forces =   -1.6911E+04    8.2860E+03   -1.0783E+05  setid=       0
 node=    95 local x,y,z forces =    4.4765E+04    5.4823E+03   -8.5573E+04  setid=       0
 node=    96 local x,y,z forces =    2.3457E+04   -3.4077E+03    4.6178E+04  setid=       0
 node=    97 local x,y,z forces =   -1.9698E+04   -3.3243E+03    4.6063E+04  setid=       0
 node=    98 local x,y,z forces =   -1.7446E+04    3.5081E+03   -2.7137E+04  setid=       0
 node=    99 local x,y,z forces =   -1.6644E+04    1.0352E+04   -1.0422E+05  setid=       0
 node=   100 local x,y,z forces =    4.2861E+04    6.9192E+03   -8.2053E+04  setid=       0
 node=   101 local x,y,z forces =    2.0709E+04   -4.6728E+03    4.0962E+04  setid=       0
 node=   102 local x,y,z forces =   -1.9744E+04   -4.6609E+03    4.0468E+04  setid=       0
 node=   103 local x,y,z forces =   -1.8226E+04    4.2774E+03   -2.7287E+04  setid=       0
 node=   104 local x,y,z forces =   -1.6612E+04    1.3236E+04   -9.8916E+04  setid=       0
 node=   105 local x,y,z forces =    4.0281E+04    8.9549E+03   -7.6939E+04  setid=       0
 node=   106 local x,y,z forces =    1.7033E+04   -5.8999E+03    3.4611E+04  setid=       0
 node=   107 local x,y,z forces =   -2.0616E+04   -6.0612E+03    3.3803E+04  setid=       0
 node=   108 local x,y,z forces =   -2.0312E+04    4.7817E+03   -2.8303E+04  setid=       0
 node=   109 local x,y,z forces =   -1.7395E+04    1.5668E+04   -9.4251E+04  setid=       0
 node=   110 local x,y,z forces =    3.6975E+04    1.0709E+04   -7.1522E+04  setid=       0
 node=   111 local x,y,z forces =    1.2048E+04   -7.8833E+03    2.5518E+04  setid=       0
 node=   112 local x,y,z forces =   -2.2777E+04   -7.8450E+03    2.4922E+04  setid=       0
 node=   113 local x,y,z forces =   -2.4845E+04    6.2123E+03   -2.8608E+04  setid=       0
 node=   114 local x,y,z forces =   -1.9361E+04    2.0307E+04   -8.5991E+04  setid=       0
 node=   115 local x,y,z forces =    3.2545E+04    1.4116E+04   -6.2671E+04  setid=       0
 node=   116 local x,y,z forces =    6.4722E+03   -6.4069E+03    1.9340E+04  setid=       0
 node=   117 local x,y,z forces =   -3.0543E+04   -6.0002E+03    1.9970E+04  setid=       0
 node=   118 local x,y,z forces =   -3.6963E+04    4.4661E+03   -3.5540E+04  setid=       0
 node=   119 local x,y,z forces =   -2.7013E+04    1.4957E+04   -9.4845E+04  setid=       0
 node=   120 local x,y,z forces =    2.9515E+04    1.0941E+04   -6.3444E+04  setid=       0
 node=   121 local x,y,z forces =    1.9200E+03   -9.6144E+03    1.1061E+04  setid=       0
 node=   122 local x,y,z forces =   -1.8844E+04   -8.4408E+03    1.1558E+04  setid=       0
 node=   123 local x,y,z forces =   -2.3580E+04    1.3720E+04   -2.3896E+04  setid=       0
 node=   124 local x,y,z forces =   -1.6991E+04    3.6413E+04   -6.1174E+04  setid=       0
 node=   125 local x,y,z forces =    1.4759E+04    2.3944E+04   -3.9234E+04  setid=       0
 node=  6253 local x,y,z forces =    5.9607E+03   -2.5628E+04    0.0000E+00  setid=       0
 node=  6258 local x,y,z forces =    5.8214E+03   -2.1109E+04    0.0000E+00  setid=       0
 node=  6263 local x,y,z forces =    1.2109E+03   -1.4671E+04    0.0000E+00  setid=       0
 node=  6268 local x,y,z forces =   -1.0894E+03   -1.2774E+04    0.0000E+00  setid=       0
 node=  6273 local x,y,z forces =   -2.3541E+03   -1.2074E+04    0.0000E+00  setid=       0
 node=  6278 local x,y,z forces =   -2.8605E+03   -1.0301E+04    0.0000E+00  setid=       0
 node=  6283 local x,y,z forces =   -3.1869E+03   -8.9657E+03    0.0000E+00  setid=       0
 node=  6288 local x,y,z forces =   -3.3177E+03   -7.3402E+03    0.0000E+00  setid=       0
 node=  6293 local x,y,z forces =   -3.4100E+03   -5.8954E+03    0.0000E+00  setid=       0
 node=  6298 local x,y,z forces =   -3.4454E+03   -4.3798E+03    0.0000E+00  setid=       0
 node=  6303 local x,y,z forces =   -3.4737E+03   -2.9234E+03    0.0000E+00  setid=       0
 node=  6308 local x,y,z forces =   -3.4814E+03   -1.4547E+03    0.0000E+00  setid=       0
 node=  6313 local x,y,z forces =   -3.4878E+03    3.6744E-10    0.0000E+00  setid=       0
 node=  6318 local x,y,z forces =   -3.4814E+03    1.4547E+03    0.0000E+00  setid=       0
 node=  6323 local x,y,z forces =   -3.4737E+03    2.9234E+03    0.0000E+00  setid=       0
 node=  6328 local x,y,z forces =   -3.4454E+03    4.3798E+03    0.0000E+00  setid=       0
 node=  6333 local x,y,z forces =   -3.4100E+03    5.8954E+03    0.0000E+00  setid=       0
 node=  6338 local x,y,z forces =   -3.3177E+03    7.3402E+03    0.0000E+00  setid=       0
 node=  6343 local x,y,z forces =   -3.1869E+03    8.9657E+03    0.0000E+00  setid=       0
 node=  6348 local x,y,z forces =   -2.8605E+03    1.0301E+04    0.0000E+00  setid=       0
 node=  6353 local x,y,z forces =   -2.3541E+03    1.2074E+04    0.0000E+00  setid=       0
 node=  6358 local x,y,z forces =   -1.0894E+03    1.2774E+04    0.0000E+00  setid=       0
 node=  6363 local x,y,z forces =    1.2109E+03    1.4671E+04    0.0000E+00  setid=       0
 node=  6368 local x,y,z forces =    5.8214E+03    2.1109E+04    0.0000E+00  setid=       0
 node=  6373 local x,y,z forces =    5.9607E+03    2.5628E+04    0.0000E+00  setid=       0
             force resultants   =   -3.4415E+02   -1.4268E-08   -3.0569E+06
 output at time =   2.00000E-03
 node=     1 local x,y,z forces =    3.8130E+03    1.3417E+04    1.6746E+04  setid=       0
 node=     2 local x,y,z forces =   -2.2958E+04    1.3523E+04    1.9838E+04  setid=       0
 node=     3 local x,y,z forces =   -2.8945E+04   -1.3757E+04   -2.3906E+04  setid=       0
 node=     4 local x,y,z forces =   -2.1029E+04   -4.1534E+04   -6.9441E+04  setid=       0
 node=     5 local x,y,z forces =    1.6658E+04   -2.7776E+04   -4.4989E+04  setid=       0
 node=     6 local x,y,z forces =    1.0558E+04    8.3584E+03    2.8717E+04  setid=       0
 node=     7 local x,y,z forces =   -3.7147E+04    8.3771E+03    3.3078E+04  setid=       0
 node=     8 local x,y,z forces =   -4.5373E+04   -4.4568E+03   -3.5536E+04  setid=       0
 node=     9 local x,y,z forces =   -3.3502E+04   -1.7348E+04   -1.0786E+05  setid=       0
 node=    10 local x,y,z forces =    3.3614E+04   -1.2936E+04   -7.2897E+04  setid=       0
 node=    11 local x,y,z forces =    1.7083E+04    1.0367E+04    3.5512E+04  setid=       0
 node=    12 local x,y,z forces =   -2.7615E+04    1.1004E+04    3.7618E+04  setid=       0
 node=    13 local x,y,z forces =   -3.0498E+04   -6.2487E+03   -2.8582E+04  setid=       0
 node=    14 local x,y,z forces =   -2.4107E+04   -2.3552E+04   -9.8527E+04  setid=       0
 node=    15 local x,y,z forces =    3.7652E+04   -1.6637E+04   -7.2738E+04  setid=       0
 node=    16 local x,y,z forces =    2.3129E+04    7.7731E+03    4.6612E+04  setid=       0
 node=    17 local x,y,z forces =   -2.4956E+04    8.4962E+03    4.8444E+04  setid=       0
 node=    18 local x,y,z forces =   -2.4934E+04   -4.8144E+03   -2.8294E+04  setid=       0
 node=    19 local x,y,z forces =   -2.1700E+04   -1.8176E+04   -1.0874E+05  setid=       0
 node=    20 local x,y,z forces =    4.3162E+04   -1.2614E+04   -8.3663E+04  setid=       0
 node=    21 local x,y,z forces =    2.7583E+04    6.2066E+03    5.4279E+04  setid=       0
 node=    22 local x,y,z forces =   -2.3888E+04    6.6591E+03    5.6395E+04  setid=       0
 node=    23 local x,y,z forces =   -2.2373E+04   -4.3121E+03   -2.7288E+04  setid=       0
 node=    24 local x,y,z forces =   -2.0735E+04   -1.5309E+04   -1.1470E+05  setid=       0
 node=    25 local x,y,z forces =    4.7278E+04   -1.0521E+04   -9.0442E+04  setid=       0
 node=    26 local x,y,z forces =    3.0927E+04    4.5672E+03    6.0649E+04  setid=       0
 node=    27 local x,y,z forces =   -2.3831E+04    4.8470E+03    6.3222E+04  setid=       0
 node=    28 local x,y,z forces =   -2.1416E+04   -3.5399E+03   -2.7150E+04  setid=       0
 node=    29 local x,y,z forces =   -2.0776E+04   -1.1941E+04   -1.2124E+05  setid=       0
 node=    30 local x,y,z forces =    5.0475E+04   -8.1091E+03   -9.6753E+04  setid=       0
 node=    31 local x,y,z forces =    3.3372E+04    3.4148E+03    6.5229E+04  setid=       0
 node=    32 local x,y,z forces =   -2.4108E+04    3.5366E+03    6.8280E+04  setid=       0
 node=    33 local x,y,z forces =   -2.1186E+04   -2.9914E+03   -2.6874E+04  setid=       0
 node=    34 local x,y,z forces =   -2.1102E+04   -9.5263E+03   -1.2575E+05  setid=       0
 node=    35 local x,y,z forces =    5.2833E+04   -6.4065E+03   -1.0112E+05  setid=       0
 node=    36 local x,y,z forces =    3.5169E+04    2.4529E+03    6.8762E+04  setid=       0
 node=    37 local x,y,z forces =   -2.4541E+04    2.4747E+03    7.2257E+04  setid=       0
 node=    38 local x,y,z forces =   -2.1336E+04   -2.4085E+03   -2.6817E+04  setid=       0
 node=    39 local x,y,z forces =   -2.1574E+04   -7.2964E+03   -1.2961E+05  setid=       0
 node=    40 local x,y,z forces =    5.4588E+04   -4.8636E+03   -1.0464E+05  setid=       0
 node=    41 local x,y,z forces =    3.6462E+04    1.7460E+03    7.1288E+04  setid=       0
 node=    42 local x,y,z forces =   -2.4976E+04    1.7106E+03    7.5154E+04  setid=       0
 node=    43 local x,y,z forces =   -2.1617E+04   -1.9033E+03   -2.6726E+04  setid=       0
 node=    44 local x,y,z forces =   -2.2028E+04   -5.5199E+03   -1.3233E+05  setid=       0
 node=    45 local x,y,z forces =    5.5859E+04   -3.6518E+03   -1.0711E+05  setid=       0
 node=    46 local x,y,z forces =    3.7373E+04    1.1754E+03    7.3117E+04  setid=       0
 node=    47 local x,y,z forces =   -2.5357E+04    1.1188E+03    7.7277E+04  setid=       0
 node=    48 local x,y,z forces =   -2.1922E+04   -1.4004E+03   -2.6704E+04  setid=       0
 node=    49 local x,y,z forces =   -2.2424E+04   -3.9212E+03   -1.3441E+05  setid=       0
 node=    50 local x,y,z forces =    5.6759E+04   -2.5785E+03   -1.0895E+05  setid=       0
 node=    51 local x,y,z forces =    3.7973E+04    7.2872E+02    7.4315E+04  setid=       0
 node=    52 local x,y,z forces =   -2.5644E+04    6.7705E+02    7.8682E+04  setid=       0
 node=    53 local x,y,z forces =   -2.2174E+04   -9.2782E+02   -2.6673E+04  setid=       0
 node=    54 local x,y,z forces =   -2.2718E+04   -2.5336E+03   -1.3575E+05  setid=       0
 node=    55 local x,y,z forces =    5.7355E+04   -1.6586E+03   -1.1013E+05  setid=       0
 node=    56 local x,y,z forces =    3.8315E+04    3.4592E+02    7.5013E+04  setid=       0
 node=    57 local x,y,z forces =   -2.5822E+04    3.1586E+02    7.9506E+04  setid=       0
 node=    58 local x,y,z forces =   -2.2338E+04   -4.5977E+02   -2.6668E+04  setid=       0
 node=    59 local x,y,z forces =   -2.2900E+04   -1.2358E+03   -1.3657E+05  setid=       0
 node=    60 local x,y,z forces =    5.7696E+04   -8.0679E+02   -1.1084E+05  setid=       0
 node=    61 local x,y,z forces =    3.8426E+04    1.8917E-10    7.5233E+04  setid=       0
 node=    62 local x,y,z forces =   -2.5882E+04   -8.5311E-10    7.9766E+04  setid=       0
 node=    63 local x,y,z forces =   -2.2394E+04    1.1350E-09   -2.6659E+04  setid=       0
 node=    64 local x,y,z forces =   -2.2961E+04   -3.6380E-10   -1.3681E+05  setid=       0
 node=    65 local x,y,z forces =    5.7806E+04    6.4028E-10   -1.1105E+05  setid=       0
 node=    66 local x,y,z forces =    3.8315E+04   -3.4592E+02    7.5013E+04  setid=       0
 node=    67 local x,y,z forces =   -2.5822E+04   -3.1586E+02    7.9506E+04  setid=       0
 node=    68 local x,y,z forces =   -2.2338E+04    4.5977E+02   -2.6668E+04  setid=       0
 node=    69 local x,y,z forces =   -2.2900E+04    1.2358E+03   -1.3657E+05  setid=       0
 node=    70 local x,y,z forces =    5.7696E+04    8.0679E+02   -1.1084E+05  setid=       0
 node=    71 local x,y,z forces =    3.7973E+04   -7.2872E+02    7.4315E+04  setid=       0
 node=    72 local x,y,z forces =   -2.5644E+04   -6.7705E+02    7.8682E+04  setid=       0
 node=    73 local x,y,z forces =   -2.2174E+04    9.2782E+02   -2.6673E+04  setid=       0
 node=    74 local x,y,z forces =   -2.2718E+04    2.5336E+03   -1.3575E+05  setid=       0
 node=    75 local x,y,z forces =    5.7355E+04    1.6586E+03   -1.1013E+05  setid=       0
 node=    76 local x,y,z forces =    3.7373E+04   -1.1754E+03    7.3117E+04  setid=       0
 node=    77 local x,y,z forces =   -2.5357E+04   -1.1188E+03    7.7277E+04  setid=       0
 node=    78 local x,y,z forces =   -2.1922E+04    1.4004E+03   -2.6704E+04  setid=       0
 node=    79 local x,y,z forces =   -2.2424E+04    3.9212E+03   -1.3441E+05  setid=       0
 node=    80 local x,y,z forces =    5.6759E+04    2.5785E+03   -1.0895E+05  setid=       0
 node=    81 local x,y,z forces =    3.6462E+04   -1.7460E+03    7.1288E+04  setid=       0
 node=    82 local x,y,z forces =   -2.4976E+04   -1.7106E+03    7.5154E+04  setid=       0
 node=    83 local x,y,z forces =   -2.1617E+04    1.9033E+03   -2.6726E+04  setid=       0
 node=    84 local x,y,z forces =   -2.2028E+04    5.5199E+03   -1.3233E+05  setid=       0
 node=    85 local x,y,z forces =    5.5859E+04    3.6518E+03   -1.0711E+05  setid=       0
 node=    86 local x,y,z forces =    3.5169E+04   -2.4529E+03    6.8762E+04  setid=       0
 node=    87 local x,y,z forces =   -2.4541E+04   -2.4747E+03    7.2257E+04  setid=       0
 node=    88 local x,y,z forces =   -2.1336E+04    2.4085E+03   -2.6817E+04  setid=       0
 node=    89 local x,y,z forces =   -2.1574E+04    7.2964E+03   -1.2961E+05  setid=       0
 node=    90 local x,y,z forces =    5.4588E+04    4.8636E+03   -1.0464E+05  setid=       0
 node=    91 local x,y,z forces =    3.3372E+04   -3.4148E+03    6.5229E+04  setid=       0
 node=    92 local x,y,z forces =   -2.4108E+04   -3.5366E+03    6.8280E+04  setid=       0
 node=    93 local x,y,z forces =   -2.1186E+04    2.9914E+03   -2.6874E+04  setid=       0
 node=    94 local x,y,z forces =   -2.1102E+04    9.5263E+03   -1.2575E+05  setid=       0
 node=    95 local x,y,z forces =    5.2833E+04    6.4065E+03   -1.0112E+05  setid=       0
 node=    96 local x,y,z forces =    3.0927E+04   -4.5672E+03    6.0649E+04  setid=       0
 node=    97 local x,y,z forces =   -2.3831E+04   -4.8470E+03    6.3222E+04  setid=       0
 node=    98 local x,y,z forces =   -2.1416E+04    3.5399E+03   -2.7150E+04  setid=       0
 node=    99 local x,y,z forces =   -2.0776E+04    1.1941E+04   -1.2124E+05  setid=       0
 node=   100 local x,y,z forces =    5.0475E+04    8.1091E+03   -9.6753E+04  setid=       0
 node=   101 local x,y,z forces =    2.7583E+04   -6.2066E+03    5.4279E+04  setid=       0
 node=   102 local x,y,z forces =   -2.3888E+04   -6.6591E+03    5.6395E+04  setid=       0
 node=   103 local x,y,z forces =   -2.2373E+04    4.3121E+03   -2.7288E+04  setid=       0
 node=   104 local x,y,z forces =   -2.0735E+04    1.5309E+04   -1.1470E+05  setid=       0
 node=   105 local x,y,z forces =    4.7278E+04    1.0521E+04   -9.0442E+04  setid=       0
 node=   106 local x,y,z forces =    2.3129E+04   -7.7731E+03    4.6612E+04  setid=       0
 node=   107 local x,y,z forces =   -2.4956E+04   -8.4962E+03    4.8444E+04  setid=       0
 node=   108 local x,y,z forces =   -2.4934E+04    4.8144E+03   -2.8294E+04  setid=       0
 node=   109 local x,y,z forces =   -2.1700E+04    1.8176E+04   -1.0874E+05  setid=       0
 node=   110 local x,y,z forces =    4.3162E+04    1.2614E+04   -8.3663E+04  setid=       0
 node=   111 local x,y,z forces =    1.7083E+04   -1.0367E+04    3.5512E+04  setid=       0
 node=   112 local x,y,z forces =   -2.7615E+04   -1.1004E+04    3.7618E+04  setid=       0
 node=   113 local x,y,z forces =   -3.0498E+04    6.2487E+03   -2.8582E+04  setid=       0
 node=   114 local x,y,z forces =   -2.4107E+04    2.3552E+04   -9.8527E+04  setid=       0
 node=   115 local x,y,z forces =    3.7652E+04    1.6637E+04   -7.2738E+04  setid=       0
 node=   116 local x,y,z forces =    1.0558E+04   -8.3584E+03    2.8717E+04  setid=       0
 node=   117 local x,y,z forces =   -3.7147E+04   -8.3771E+03    3.3078E+04  setid=       0
 node=   118 local x,y,z forces =   -4.5373E+04    4.4568E+03   -3.5536E+04  setid=       0
 node=   119 local x,y,z forces =   -3.3502E+04    1.7348E+04   -1.0786E+05  setid=       0
 node=   120 local x,y,z forces =    3.3614E+04    1.2936E+04   -7.2897E+04  setid=       0
 node=   121 local x,y,z forces =    3.8130E+03   -1.3417E+04    1.6746E+04  setid=       0
 node=   122 local x,y,z forces =   -2.2958E+04   -1.3523E+04    1.9838E+04  setid=       0
 node=   123 local x,y,z forces =   -2.8945E+04    1.3757E+04   -2.3906E+04  setid=       0
 node=   124 local x,y,z forces =   -2.1029E+04    4.1534E+04   -6.9441E+04  setid=       0
 node=   125 local x,y,z forces =    1.6658E+04    2.7776E+04   -4.4989E+04  setid=       0
 node=  6253 local x,y,z forces =    7.2783E+03   -2.5587E+04    0.0000E+00  setid=       0
 node=  6258 local x,y,z forces =    7.1237E+03   -2.1126E+04    0.0000E+00  setid=       0
 node=  6263 local x,y,z forces =    1.5033E+03   -1.4685E+04    0.0000E+00  setid=       0
 node=  6268 local x,y,z forces =   -1.3012E+03   -1.2787E+04    0.0000E+00  setid=       0
 node=  6273 local x,y,z forces =   -2.8432E+03   -1.2087E+04    0.0000E+00  setid=       0
 node=  6278 local x,y,z forces =   -3.4606E+03   -1.0313E+04    0.0000E+00  setid=       0
 node=  6283 local x,y,z forces =   -3.8586E+03   -8.9765E+03    0.0000E+00  setid=       0
 node=  6288 local x,y,z forces =   -4.0181E+03   -7.3494E+03    0.0000E+00  setid=       0
 node=  6293 local x,y,z forces =   -4.1307E+03   -5.9031E+03    0.0000E+00  setid=       0
 node=  6298 local x,y,z forces =   -4.1740E+03   -4.3856E+03    0.0000E+00  setid=       0
 node=  6303 local x,y,z forces =   -4.2085E+03   -2.9274E+03    0.0000E+00  setid=       0
 node=  6308 local x,y,z forces =   -4.2179E+03   -1.4567E+03    0.0000E+00  setid=       0
 node=  6313 local x,y,z forces =   -4.2258E+03    1.0550E-10    0.0000E+00  setid=       0
 node=  6318 local x,y,z forces =   -4.2179E+03    1.4567E+03    0.0000E+00  setid=       0
 node=  6323 local x,y,z forces =   -4.2085E+03    2.9274E+03    0.0000E+00  setid=       0
 node=  6328 local x,y,z forces =   -4.1740E+03    4.3856E+03    0.0000E+00  setid=       0
 node=  6333 local x,y,z forces =   -4.1307E+03    5.9031E+03    0.0000E+00  setid=       0
 node=  6338 local x,y,z forces =   -4.0181E+03    7.3494E+03    0.0000E+00  setid=       0
 node=  6343 local x,y,z forces =   -3.8586E+03    8.9765E+03    0.0000E+00  setid=       0
 node=  6348 local x,y,z forces =   -3.4606E+03    1.0313E+04    0.0000E+00  setid=       0
 node=  6353 local x,y,z forces =   -2.8432E+03    1.2087E+04    0.0000E+00  setid=       0
 node=  6358 local x,y,z forces =   -1.3012E+03    1.2787E+04    0.0000E+00  setid=       0
 node=  6363 local x,y,z forces =    1.5033E+03    1.4685E+04    0.0000E+00  setid=       0
 node=  6368 local x,y,z forces =    7.1237E+03    2.1126E+04    0.0000E+00  setid=       0
 node=  6373 local x,y,z forces =    7.2783E+03    2.5587E+04    0.0000E+00  setid=       0
             force resultants   =    4.1872E+02   -5.1768E-09   -3.0604E+06
 output at time =   2.50000E-03
 node=     1 local x,y,z forces =    5.4065E+03    1.6607E+04    2.1518E+04  setid=       0
 node=     2 local x,y,z forces =   -2.6405E+04    1.7792E+04    2.6802E+04  setid=       0
 node=     3 local x,y,z forces =   -3.3433E+04   -1.3775E+04   -2.3886E+04  setid=       0
 node=     4 local x,y,z forces =   -2.4403E+04   -4.5805E+04   -7.6328E+04  setid=       0
 node=     5 local x,y,z forces =    1.8241E+04   -3.0976E+04   -4.9795E+04  setid=       0
 node=     6 local x,y,z forces =    1.3994E+04    9.9908E+03    3.6589E+04  setid=       0
 node=     7 local x,y,z forces =   -4.2679E+04    1.0371E+04    4.4106E+04  setid=       0
 node=     8 local x,y,z forces =   -5.2409E+04   -4.4419E+03   -3.5488E+04  setid=       0
 node=     9 local x,y,z forces =   -3.8924E+04   -1.9344E+04   -1.1869E+05  setid=       0
 node=    10 local x,y,z forces =    3.7031E+04   -1.4606E+04   -8.0790E+04  setid=       0
 node=    11 local x,y,z forces =    2.1307E+04    1.2445E+04    4.3897E+04  setid=       0
 node=    12 local x,y,z forces =   -3.1668E+04    1.3649E+04    4.8299E+04  setid=       0
 node=    13 local x,y,z forces =   -3.5227E+04   -6.2770E+03   -2.8519E+04  setid=       0
 node=    14 local x,y,z forces =   -2.8072E+04   -2.6266E+04   -1.0897E+05  setid=       0
 node=    15 local x,y,z forces =    4.1919E+04   -1.8745E+04   -8.1150E+04  setid=       0
 node=    16 local x,y,z forces =    2.8238E+04    9.3406E+03    5.6670E+04  setid=       0
 node=    17 local x,y,z forces =   -2.8588E+04    1.0533E+04    6.0750E+04  setid=       0
 node=    18 local x,y,z forces =   -2.8802E+04   -4.8407E+03   -2.8249E+04  setid=       0
 node=    19 local x,y,z forces =   -2.5300E+04   -2.0274E+04   -1.2082E+05  setid=       0
 node=    20 local x,y,z forces =    4.8335E+04   -1.4207E+04   -9.3815E+04  setid=       0
 node=    21 local x,y,z forces =    3.3341E+04    7.4897E+03    6.5435E+04  setid=       0
 node=    22 local x,y,z forces =   -2.7355E+04    8.3300E+03    6.9776E+04  setid=       0
 node=    23 local x,y,z forces =   -2.5844E+04   -4.3411E+03   -2.7253E+04  setid=       0
 node=    24 local x,y,z forces =   -2.4185E+04   -1.7044E+04   -1.2786E+05  setid=       0
 node=    25 local x,y,z forces =    5.3132E+04   -1.1832E+04   -1.0174E+05  setid=       0
 node=    26 local x,y,z forces =    3.7181E+04    5.5368E+03    7.2766E+04  setid=       0
 node=    27 local x,y,z forces =   -2.7286E+04    6.1197E+03    7.7631E+04  setid=       0
 node=    28 local x,y,z forces =   -2.4738E+04   -3.5670E+03   -2.7128E+04  setid=       0
 node=    29 local x,y,z forces =   -2.4234E+04   -1.3270E+04   -1.3545E+05  setid=       0
 node=    30 local x,y,z forces =    5.6844E+04   -9.1044E+03   -1.0905E+05  setid=       0
 node=    31 local x,y,z forces =    3.9988E+04    4.1638E+03    7.8023E+04  setid=       0
 node=    32 local x,y,z forces =   -2.7606E+04    4.5231E+03    8.3424E+04  setid=       0
 node=    33 local x,y,z forces =   -2.4473E+04   -3.0165E+03   -2.6862E+04  setid=       0
 node=    34 local x,y,z forces =   -2.4612E+04   -1.0565E+04   -1.4070E+05  setid=       0
 node=    35 local x,y,z forces =    5.9585E+04   -7.1797E+03   -1.1413E+05  setid=       0
 node=    36 local x,y,z forces =    4.2054E+04    3.0091E+03    8.2090E+04  setid=       0
 node=    37 local x,y,z forces =   -2.8105E+04    3.2099E+03    8.8001E+04  setid=       0
 node=    38 local x,y,z forces =   -2.4646E+04   -2.4302E+03   -2.6815E+04  setid=       0
 node=    39 local x,y,z forces =   -2.5157E+04   -8.0754E+03   -1.4518E+05  setid=       0
 node=    40 local x,y,z forces =    6.1621E+04   -5.4413E+03   -1.1821E+05  setid=       0
 node=    41 local x,y,z forces =    4.3540E+04    2.1552E+03    8.4993E+04  setid=       0
 node=    42 local x,y,z forces =   -2.8607E+04    2.2528E+03    9.1326E+04  setid=       0
 node=    43 local x,y,z forces =   -2.4971E+04   -1.9213E+03   -2.6731E+04  setid=       0
 node=    44 local x,y,z forces =   -2.5682E+04   -6.0982E+03   -1.4834E+05  setid=       0
 node=    45 local x,y,z forces =    6.3097E+04   -4.0791E+03   -1.2108E+05  setid=       0
 node=    46 local x,y,z forces =    4.4586E+04    1.4593E+03    8.7099E+04  setid=       0
 node=    47 local x,y,z forces =   -2.9047E+04    1.4956E+03    9.3770E+04  setid=       0
 node=    48 local x,y,z forces =   -2.5324E+04   -1.4141E+03   -2.6715E+04  setid=       0
 node=    49 local x,y,z forces =   -2.6139E+04   -4.3254E+03   -1.5075E+05  setid=       0
 node=    50 local x,y,z forces =    6.4142E+04   -2.8763E+03   -1.2321E+05  setid=       0
 node=    51 local x,y,z forces =    4.5276E+04    9.0889E+02    8.8476E+04  setid=       0
 node=    52 local x,y,z forces =   -2.9379E+04    9.1652E+02    9.5384E+04  setid=       0
 node=    53 local x,y,z forces =   -2.5614E+04   -9.3713E+02   -2.6687E+04  setid=       0
 node=    54 local x,y,z forces =   -2.6479E+04   -2.7916E+03   -1.5231E+05  setid=       0
 node=    55 local x,y,z forces =    6.4833E+04   -1.8483E+03   -1.2458E+05  setid=       0
 node=    56 local x,y,z forces =    4.5669E+04    4.3280E+02    8.9280E+04  setid=       0
 node=    57 local x,y,z forces =   -2.9584E+04    4.3142E+02    9.6332E+04  setid=       0
 node=    58 local x,y,z forces =   -2.5804E+04   -4.6446E+02   -2.6685E+04  setid=       0
 node=    59 local x,y,z forces =   -2.6690E+04   -1.3606E+03   -1.5326E+05  setid=       0
 node=    60 local x,y,z forces =    6.5229E+04   -8.9850E+02   -1.2540E+05  setid=       0
 node=    61 local x,y,z forces =    4.5796E+04    2.1828E-10    8.9532E+04  setid=       0
 node=    62 local x,y,z forces =   -2.9653E+04   -1.3097E-10    9.6631E+04  setid=       0
 node=    63 local x,y,z forces =   -2.5869E+04    1.4625E-09   -2.6677E+04  setid=       0
 node=    64 local x,y,z forces =   -2.6760E+04   -6.8394E-10   -1.5354E+05  setid=       0
 node=    65 local x,y,z forces =    6.5357E+04    1.8917E-10   -1.2565E+05  setid=       0
 node=    66 local x,y,z forces =    4.5669E+04   -4.3280E+02    8.9280E+04  setid=       0
 node=    67 local x,y,z forces =   -2.9584E+04   -4.3142E+02    9.6332E+04  setid=       0
 node=    68 local x,y,z forces =   -2.5804E+04    4.6446E+02   -2.6685E+04  setid=       0
 node=    69 local x,y,z forces =   -2.6690E+04    1.3606E+03   -1.5326E+05  setid=       0
 node=    70 local x,y,z forces =    6.5229E+04    8.9850E+02   -1.2540E+05  setid=       0
 node=    71 local x,y,z forces =    4.5276E+04   -9.0889E+02    8.8476E+04  setid=       0
 node=    72 local x,y,z forces =   -2.9379E+04   -9.1652E+02    9.5384E+04  setid=       0
 node=    73 local x,y,z forces =   -2.5614E+04    9.3713E+02   -2.6687E+04  setid=       0
 node=    74 local x,y,z forces =   -2.6479E+04    2.7916E+03   -1.5231E+05  setid=       0
 node=    75 local x,y,z forces =    6.4833E+04    1.8483E+03   -1.2458E+05  setid=       0
 node=    76 local x,y,z forces =    4.4586E+04   -1.4593E+03    8.7099E+04  setid=       0
 node=    77 local x,y,z forces =   -2.9047E+04   -1.4956E+03    9.3770E+04  setid=       0
 node=    78 local x,y,z forces =   -2.5324E+04    1.4141E+03   -2.6715E+04  setid=       0
 node=    79 local x,y,z forces =   -2.6139E+04    4.3254E+03   -1.5075E+05  setid=       0
 node=    80 local x,y,z forces =    6.4142E+04    2.8763E+03   -1.2321E+05  setid=       0
 node=    81 local x,y,z forces =    4.3540E+04   -2.1552E+03    8.4993E+04  setid=       0
 node=    82 local x,y,z forces =   -2.8607E+04   -2.2528E+03    9.1326E+04  setid=       0
 node=    83 local x,y,z forces =   -2.4971E+04    1.9213E+03   -2.6731E+04  setid=       0
 node=    84 local x,y,z forces =   -2.5682E+04    6.0982E+03   -1.4834E+05  setid=       0
 node=    85 local x,y,z forces =    6.3097E+04    4.0791E+03   -1.2108E+05  setid=       0
 node=    86 local x,y,z forces =    4.2054E+04   -3.0091E+03    8.2090E+04  setid=       0
 node=    87 local x,y,z forces =   -2.8105E+04   -3.2099E+03    8.8001E+04  setid=       0
 node=    88 local x,y,z forces =   -2.4646E+04    2.4302E+03   -2.6815E+04  setid=       0
 node=    89 local x,y,z forces =   -2.5157E+04    8.0754E+03   -1.4518E+05  setid=       0
 node=    90 local x,y,z forces =    6.1621E+04    5.4413E+03   -1.1821E+05  setid=       0
 node=    91 local x,y,z forces =    3.9988E+04   -4.1638E+03    7.8023E+04  setid=       0
 node=    92 local x,y,z forces =   -2.7606E+04   -4.5231E+03    8.3424E+04  setid=       0
 node=    93 local x,y,z forces =   -2.4473E+04    3.0165E+03   -2.6862E+04  setid=       0
 node=    94 local x,y,z forces =   -2.4612E+04    1.0565E+04   -1.4070E+05  setid=       0
 node=    95 local x,y,z forces =    5.9585E+04    7.1797E+03   -1.1413E+05  setid=       0
 node=    96 local x,y,z forces =    3.7181E+04   -5.5368E+03    7.2766E+04  setid=       0
 node=    97 local x,y,z forces =   -2.7286E+04   -6.1197E+03    7.7631E+04  setid=       0
 node=    98 local x,y,z forces =   -2.4738E+04    3.5670E+03   -2.7128E+04  setid=       0
[...]
 node=    88 local x,y,z forces =   -1.2340E+05    4.5220E+03   -2.7054E+04  setid=       0
 node=    89 local x,y,z forces =   -1.3087E+05    3.2460E+04   -6.0131E+05  setid=       0
 node=    90 local x,y,z forces =    2.7432E+05    2.3155E+04   -5.2848E+05  setid=       0
 node=    91 local x,y,z forces =    2.3067E+05   -2.5408E+04    4.5007E+05  setid=       0
 node=    92 local x,y,z forces =   -1.2992E+05   -3.1816E+04    5.3764E+05  setid=       0
 node=    93 local x,y,z forces =   -1.2247E+05    5.4447E+03   -2.6236E+04  setid=       0
 node=    94 local x,y,z forces =   -1.2791E+05    4.2862E+04   -5.7828E+05  setid=       0
 node=    95 local x,y,z forces =    2.6359E+05    3.0763E+04   -5.0704E+05  setid=       0
 node=    96 local x,y,z forces =    2.1789E+05   -3.3255E+04    4.2584E+05  setid=       0
 node=    97 local x,y,z forces =   -1.2863E+05   -4.1707E+04    5.1068E+05  setid=       0
 node=    98 local x,y,z forces =   -1.2371E+05    6.1987E+03   -2.5550E+04  setid=       0
 node=    99 local x,y,z forces =   -1.2583E+05    5.4366E+04   -5.5053E+05  setid=       0
 node=   100 local x,y,z forces =    2.4902E+05    3.9312E+04   -4.8000E+05  setid=       0
 node=   101 local x,y,z forces =    2.0013E+05   -4.4418E+04    3.9151E+05  setid=       0
 node=   102 local x,y,z forces =   -1.2976E+05   -5.5450E+04    4.7312E+05  setid=       0
 node=   103 local x,y,z forces =   -1.2910E+05    7.1659E+03   -2.4498E+04  setid=       0
 node=   104 local x,y,z forces =   -1.2493E+05    7.0353E+04   -5.1169E+05  setid=       0
 node=   105 local x,y,z forces =    2.2953E+05    5.1392E+04   -4.4168E+05  setid=       0
 node=   106 local x,y,z forces =    1.7705E+05   -5.4756E+04    3.5174E+05  setid=       0
 node=   107 local x,y,z forces =   -1.3646E+05   -6.8626E+04    4.3262E+05  setid=       0
 node=   108 local x,y,z forces =   -1.4369E+05    7.4303E+03   -2.4533E+04  setid=       0
 node=   109 local x,y,z forces =   -1.3015E+05    8.4309E+04   -4.7252E+05  setid=       0
 node=   110 local x,y,z forces =    2.0369E+05    6.2142E+04   -3.9844E+05  setid=       0
 node=   111 local x,y,z forces =    1.4479E+05   -7.2824E+04    2.9169E+05  setid=       0
 node=   112 local x,y,z forces =   -1.5398E+05   -8.9411E+04    3.7269E+05  setid=       0
 node=   113 local x,y,z forces =   -1.7537E+05    9.0808E+03   -2.3138E+04  setid=       0
 node=   114 local x,y,z forces =   -1.4206E+05    1.0884E+05   -4.1229E+05  setid=       0
 node=   115 local x,y,z forces =    1.7005E+05    8.2018E+04   -3.3220E+05  setid=       0
 node=   116 local x,y,z forces =    1.1606E+05   -5.7068E+04    2.6913E+05  setid=       0
 node=   117 local x,y,z forces =   -2.0971E+05   -6.9279E+04    3.7718E+05  setid=       0
 node=   118 local x,y,z forces =   -2.6066E+05    3.1261E+03   -3.1648E+04  setid=       0
 node=   119 local x,y,z forces =   -1.9551E+05    7.8701E+04   -4.3533E+05  setid=       0
 node=   120 local x,y,z forces =    1.3810E+05    6.5314E+04   -3.1620E+05  setid=       0
 node=   121 local x,y,z forces =    5.2757E+04   -1.1071E+05    1.6176E+05  setid=       0
 node=   122 local x,y,z forces =   -1.3060E+05   -1.4397E+05    2.3563E+05  setid=       0
 node=   123 local x,y,z forces =   -1.6622E+05    1.5857E+04   -2.2502E+04  setid=       0
 node=   124 local x,y,z forces =   -1.2173E+05    1.7286E+05   -2.7899E+05  setid=       0
 node=   125 local x,y,z forces =    6.4965E+04    1.2637E+05   -1.9383E+05  setid=       0
 node=  6253 local x,y,z forces =    3.8373E+04   -2.4739E+04    0.0000E+00  setid=       0
 node=  6258 local x,y,z forces =    3.7081E+04   -2.0513E+04    0.0000E+00  setid=       0
 node=  6263 local x,y,z forces =    7.0867E+03   -1.4438E+04    0.0000E+00  setid=       0
 node=  6268 local x,y,z forces =   -7.8785E+03   -1.2673E+04    0.0000E+00  setid=       0
 node=  6273 local x,y,z forces =   -1.6114E+04   -1.2039E+04    0.0000E+00  setid=       0
 node=  6278 local x,y,z forces =   -1.9423E+04   -1.0341E+04    0.0000E+00  setid=       0
 node=  6283 local x,y,z forces =   -2.1565E+04   -9.0453E+03    0.0000E+00  setid=       0
 node=  6288 local x,y,z forces =   -2.2437E+04   -7.4468E+03    0.0000E+00  setid=       0
 node=  6293 local x,y,z forces =   -2.3058E+04   -6.0049E+03    0.0000E+00  setid=       0
 node=  6298 local x,y,z forces =   -2.3307E+04   -4.4779E+03    0.0000E+00  setid=       0
 node=  6303 local x,y,z forces =   -2.3505E+04   -2.9960E+03    0.0000E+00  setid=       0
 node=  6308 local x,y,z forces =   -2.3564E+04   -1.4934E+03    0.0000E+00  setid=       0
 node=  6313 local x,y,z forces =   -2.3609E+04   -8.2946E-10    0.0000E+00  setid=       0
 node=  6318 local x,y,z forces =   -2.3564E+04    1.4934E+03    0.0000E+00  setid=       0
 node=  6323 local x,y,z forces =   -2.3505E+04    2.9960E+03    0.0000E+00  setid=       0
 node=  6328 local x,y,z forces =   -2.3307E+04    4.4779E+03    0.0000E+00  setid=       0
 node=  6333 local x,y,z forces =   -2.3058E+04    6.0049E+03    0.0000E+00  setid=       0
 node=  6338 local x,y,z forces =   -2.2437E+04    7.4468E+03    0.0000E+00  setid=       0
 node=  6343 local x,y,z forces =   -2.1565E+04    9.0453E+03    0.0000E+00  setid=       0
 node=  6348 local x,y,z forces =   -1.9423E+04    1.0341E+04    0.0000E+00  setid=       0
 node=  6353 local x,y,z forces =   -1.6114E+04    1.2039E+04    0.0000E+00  setid=       0
 node=  6358 local x,y,z forces =   -7.8785E+03    1.2673E+04    0.0000E+00  setid=       0
 node=  6363 local x,y,z forces =    7.0867E+03    1.4438E+04    0.0000E+00  setid=       0
 node=  6368 local x,y,z forces =    3.7081E+04    2.0513E+04    0.0000E+00  setid=       0
 node=  6373 local x,y,z forces =    3.8373E+04    2.4739E+04    0.0000E+00  setid=       0
             force resultants   =   -1.7735E+02   -2.4447E-09   -3.0900E+06
 output at time =   5.00000E-02
 node=     1 local x,y,z forces =    5.3062E+04    1.1131E+05    1.6265E+05  setid=       0
 node=     2 local x,y,z forces =   -1.3128E+05    1.4478E+05    2.3699E+05  setid=       0
 node=     3 local x,y,z forces =   -1.6707E+05   -1.5880E+04   -2.2487E+04  setid=       0
 node=     4 local x,y,z forces =   -1.2234E+05   -1.7368E+05   -2.8028E+05  setid=       0
 node=     5 local x,y,z forces =    6.5264E+04   -1.2699E+05   -1.9476E+05  setid=       0
 node=     6 local x,y,z forces =    1.1672E+05    5.7362E+04    2.7062E+05  setid=       0
 node=     7 local x,y,z forces =   -2.1080E+05    6.9657E+04    3.7937E+05  setid=       0
 node=     8 local x,y,z forces =   -2.6199E+05   -3.1121E+03   -3.1607E+04  setid=       0
 node=     9 local x,y,z forces =   -1.9649E+05   -7.9083E+04   -4.3733E+05  setid=       0
 node=    10 local x,y,z forces =    1.3875E+05   -6.5647E+04   -3.1772E+05  setid=       0
 node=    11 local x,y,z forces =    1.4557E+05    7.3203E+04    2.9328E+05  setid=       0
 node=    12 local x,y,z forces =   -1.5477E+05    8.9880E+04    3.7482E+05  setid=       0
 node=    13 local x,y,z forces =   -1.7627E+05   -9.1107E+03   -2.3080E+04  setid=       0
 node=    14 local x,y,z forces =   -1.4277E+05   -1.0938E+05   -4.1420E+05  setid=       0
 node=    15 local x,y,z forces =    1.7088E+05   -8.2428E+04   -3.3383E+05  setid=       0
 node=    16 local x,y,z forces =    1.7798E+05    5.5040E+04    3.5362E+05  setid=       0
 node=    17 local x,y,z forces =   -1.3715E+05    6.8984E+04    4.3505E+05  setid=       0
 node=    18 local x,y,z forces =   -1.4443E+05   -7.4578E+03   -2.4492E+04  setid=       0
 node=    19 local x,y,z forces =   -1.3080E+05   -8.4731E+04   -4.7474E+05  setid=       0
 node=    20 local x,y,z forces =    2.0470E+05   -6.2454E+04   -4.0042E+05  setid=       0
 node=    21 local x,y,z forces =    2.0117E+05    4.4648E+04    3.9358E+05  setid=       0
 node=    22 local x,y,z forces =   -1.3041E+05    5.5736E+04    4.7576E+05  setid=       0
 node=    23 local x,y,z forces =   -1.2977E+05   -7.1959E+03   -2.4468E+04  setid=       0
 node=    24 local x,y,z forces =   -1.2557E+05   -7.0705E+04   -5.1412E+05  setid=       0
 node=    25 local x,y,z forces =    2.3068E+05   -5.1649E+04   -4.4390E+05  setid=       0
 node=    26 local x,y,z forces =    2.1902E+05    3.3427E+04    4.2807E+05  setid=       0
 node=    27 local x,y,z forces =   -1.2927E+05    4.1922E+04    5.1350E+05  setid=       0
 node=    28 local x,y,z forces =   -1.2435E+05   -6.2266E+03   -2.5532E+04  setid=       0
 node=    29 local x,y,z forces =   -1.2647E+05   -5.4639E+04   -5.5316E+05  setid=       0
 node=    30 local x,y,z forces =    2.5027E+05   -3.9509E+04   -4.8242E+05  setid=       0
 node=    31 local x,y,z forces =    2.3186E+05    2.5538E+04    4.5242E+05  setid=       0
 node=    32 local x,y,z forces =   -1.3056E+05    3.1979E+04    5.4059E+05  setid=       0
 node=    33 local x,y,z forces =   -1.2311E+05   -5.4705E+03   -2.6229E+04  setid=       0
 node=    34 local x,y,z forces =   -1.2857E+05   -4.3078E+04   -5.8105E+05  setid=       0
 node=    35 local x,y,z forces =    2.6492E+05   -3.0918E+04   -5.0961E+05  setid=       0
 node=    36 local x,y,z forces =    2.4136E+05    1.8758E+04    4.7144E+05  setid=       0
 node=    37 local x,y,z forces =   -1.3276E+05    2.3477E+04    5.6242E+05  setid=       0
 node=    38 local x,y,z forces =   -1.2404E+05   -4.5442E+03   -2.7055E+04  setid=       0
 node=    39 local x,y,z forces =   -1.3154E+05   -3.2624E+04   -6.0421E+05  setid=       0
 node=    40 local x,y,z forces =    2.7570E+05   -2.3272E+04   -5.3116E+05  setid=       0
 node=    41 local x,y,z forces =    2.4812E+05    1.3653E+04    4.8488E+05  setid=       0
 node=    42 local x,y,z forces =   -1.3514E+05    1.7056E+04    5.7802E+05  setid=       0
 node=    43 local x,y,z forces =   -1.2571E+05   -3.6724E+03   -2.7663E+04  setid=       0
 node=    44 local x,y,z forces =   -1.3426E+05   -2.4422E+04   -6.2080E+05  setid=       0
 node=    45 local x,y,z forces =    2.8359E+05   -1.7329E+04   -5.4645E+05  setid=       0
 node=    46 local x,y,z forces =    2.5288E+05    9.3811E+03    4.9467E+05  setid=       0
 node=    47 local x,y,z forces =   -1.3723E+05    1.1700E+04    5.8960E+05  setid=       0
 node=    48 local x,y,z forces =   -1.2751E+05   -2.7500E+03   -2.8198E+04  setid=       0
 node=    49 local x,y,z forces =   -1.3663E+05   -1.7194E+04   -6.3333E+05  setid=       0
 node=    50 local x,y,z forces =    2.8914E+05   -1.2153E+04   -5.5771E+05  setid=       0
 node=    51 local x,y,z forces =    2.5599E+05    5.9107E+03    5.0102E+05  setid=       0
 node=    52 local x,y,z forces =   -1.3885E+05    7.3597E+03    5.9715E+05  setid=       0
 node=    53 local x,y,z forces =   -1.2898E+05   -1.8428E+03   -2.8557E+04  setid=       0
 node=    54 local x,y,z forces =   -1.3836E+05   -1.1035E+04   -6.4153E+05  setid=       0
 node=    55 local x,y,z forces =    2.9285E+05   -7.7761E+03   -5.6503E+05  setid=       0
 node=    56 local x,y,z forces =    2.5777E+05    2.8364E+03    5.0475E+05  setid=       0
 node=    57 local x,y,z forces =   -1.3984E+05    3.5279E+03    6.0163E+05  setid=       0
 node=    58 local x,y,z forces =   -1.2995E+05   -9.1984E+02   -2.8790E+04  setid=       0
 node=    59 local x,y,z forces =   -1.3944E+05   -5.3596E+03   -6.4645E+05  setid=       0
 node=    60 local x,y,z forces =    2.9495E+05   -3.7704E+03   -5.6936E+05  setid=       0
 node=    61 local x,y,z forces =    2.5834E+05   -5.8208E-11    5.0590E+05  setid=       0
 node=    62 local x,y,z forces =   -1.4019E+05   -4.6566E-10    6.0301E+05  setid=       0
 node=    63 local x,y,z forces =   -1.3027E+05    1.3970E-09   -2.8858E+04  setid=       0
 node=    64 local x,y,z forces =   -1.3979E+05    6.4028E-10   -6.4795E+05  setid=       0
 node=    65 local x,y,z forces =    2.9564E+05    5.2387E-10   -5.7070E+05  setid=       0
 node=    66 local x,y,z forces =    2.5777E+05   -2.8364E+03    5.0475E+05  setid=       0
 node=    67 local x,y,z forces =   -1.3984E+05   -3.5279E+03    6.0163E+05  setid=       0
 node=    68 local x,y,z forces =   -1.2995E+05    9.1984E+02   -2.8790E+04  setid=       0
 node=    69 local x,y,z forces =   -1.3944E+05    5.3596E+03   -6.4645E+05  setid=       0
 node=    70 local x,y,z forces =    2.9495E+05    3.7704E+03   -5.6936E+05  setid=       0
 node=    71 local x,y,z forces =    2.5599E+05   -5.9107E+03    5.0102E+05  setid=       0
 node=    72 local x,y,z forces =   -1.3885E+05   -7.3597E+03    5.9715E+05  setid=       0
 node=    73 local x,y,z forces =   -1.2898E+05    1.8428E+03   -2.8557E+04  setid=       0
 node=    74 local x,y,z forces =   -1.3836E+05    1.1035E+04   -6.4153E+05  setid=       0
 node=    75 local x,y,z forces =    2.9285E+05    7.7761E+03   -5.6503E+05  setid=       0
 node=    76 local x,y,z forces =    2.5288E+05   -9.3811E+03    4.9467E+05  setid=       0
 node=    77 local x,y,z forces =   -1.3723E+05   -1.1700E+04    5.8960E+05  setid=       0
 node=    78 local x,y,z forces =   -1.2751E+05    2.7500E+03   -2.8198E+04  setid=       0
 node=    79 local x,y,z forces =   -1.3663E+05    1.7194E+04   -6.3333E+05  setid=       0
 node=    80 local x,y,z forces =    2.8914E+05    1.2153E+04   -5.5771E+05  setid=       0
 node=    81 local x,y,z forces =    2.4812E+05   -1.3653E+04    4.8488E+05  setid=       0
 node=    82 local x,y,z forces =   -1.3514E+05   -1.7056E+04    5.7802E+05  setid=       0
 node=    83 local x,y,z forces =   -1.2571E+05    3.6724E+03   -2.7663E+04  setid=       0
 node=    84 local x,y,z forces =   -1.3426E+05    2.4422E+04   -6.2080E+05  setid=       0
 node=    85 local x,y,z forces =    2.8359E+05    1.7329E+04   -5.4645E+05  setid=       0
 node=    86 local x,y,z forces =    2.4136E+05   -1.8758E+04    4.7144E+05  setid=       0
 node=    87 local x,y,z forces =   -1.3276E+05   -2.3477E+04    5.6242E+05  setid=       0
 node=    88 local x,y,z forces =   -1.2404E+05    4.5442E+03   -2.7055E+04  setid=       0
 node=    89 local x,y,z forces =   -1.3154E+05    3.2624E+04   -6.0421E+05  setid=       0
 node=    90 local x,y,z forces =    2.7570E+05    2.3272E+04   -5.3116E+05  setid=       0
 node=    91 local x,y,z forces =    2.3186E+05   -2.5538E+04    4.5242E+05  setid=       0
 node=    92 local x,y,z forces =   -1.3056E+05   -3.1979E+04    5.4059E+05  setid=       0
 node=    93 local x,y,z forces =   -1.2311E+05    5.4705E+03   -2.6229E+04  setid=       0
 node=    94 local x,y,z forces =   -1.2857E+05    4.3078E+04   -5.8105E+05  setid=       0
 node=    95 local x,y,z forces =    2.6492E+05    3.0918E+04   -5.0961E+05  setid=       0
 node=    96 local x,y,z forces =    2.1902E+05   -3.3427E+04    4.2807E+05  setid=       0
 node=    97 local x,y,z forces =   -1.2927E+05   -4.1922E+04    5.1350E+05  setid=       0
 node=    98 local x,y,z forces =   -1.2435E+05    6.2266E+03   -2.5532E+04  setid=       0
 node=    99 local x,y,z forces =   -1.2647E+05    5.4639E+04   -5.5316E+05  setid=       0
 node=   100 local x,y,z forces =    2.5027E+05    3.9509E+04   -4.8242E+05  setid=       0
 node=   101 local x,y,z forces =    2.0117E+05   -4.4648E+04    3.9358E+05  setid=       0
 node=   102 local x,y,z forces =   -1.3041E+05   -5.5736E+04    4.7576E+05  setid=       0
 node=   103 local x,y,z forces =   -1.2977E+05    7.1959E+03   -2.4468E+04  setid=       0
 node=   104 local x,y,z forces =   -1.2557E+05    7.0705E+04   -5.1412E+05  setid=       0
 node=   105 local x,y,z forces =    2.3068E+05    5.1649E+04   -4.4390E+05  setid=       0
 node=   106 local x,y,z forces =    1.7798E+05   -5.5040E+04    3.5362E+05  setid=       0
 node=   107 local x,y,z forces =   -1.3715E+05   -6.8984E+04    4.3505E+05  setid=       0
 node=   108 local x,y,z forces =   -1.4443E+05    7.4578E+03   -2.4492E+04  setid=       0
 node=   109 local x,y,z forces =   -1.3080E+05    8.4731E+04   -4.7474E+05  setid=       0
 node=   110 local x,y,z forces =    2.0470E+05    6.2454E+04   -4.0042E+05  setid=       0
 node=   111 local x,y,z forces =    1.4557E+05   -7.3203E+04    2.9328E+05  setid=       0
 node=   112 local x,y,z forces =   -1.5477E+05   -8.9880E+04    3.7482E+05  setid=       0
 node=   113 local x,y,z forces =   -1.7627E+05    9.1107E+03   -2.3080E+04  setid=       0
 node=   114 local x,y,z forces =   -1.4277E+05    1.0938E+05   -4.1420E+05  setid=       0
 node=   115 local x,y,z forces =    1.7088E+05    8.2428E+04   -3.3383E+05  setid=       0
 node=   116 local x,y,z forces =    1.1672E+05   -5.7362E+04    2.7062E+05  setid=       0
 node=   117 local x,y,z forces =   -2.1080E+05   -6.9657E+04    3.7937E+05  setid=       0
 node=   118 local x,y,z forces =   -2.6199E+05    3.1121E+03   -3.1607E+04  setid=       0
 node=   119 local x,y,z forces =   -1.9649E+05    7.9083E+04   -4.3733E+05  setid=       0
 node=   120 local x,y,z forces =    1.3875E+05    6.5647E+04   -3.1772E+05  setid=       0
 node=   121 local x,y,z forces =    5.3062E+04   -1.1131E+05    1.6265E+05  setid=       0
 node=   122 local x,y,z forces =   -1.3128E+05   -1.4478E+05    2.3699E+05  setid=       0
 node=   123 local x,y,z forces =   -1.6707E+05    1.5880E+04   -2.2487E+04  setid=       0
 node=   124 local x,y,z forces =   -1.2234E+05    1.7368E+05   -2.8028E+05  setid=       0
 node=   125 local x,y,z forces =    6.5264E+04    1.2699E+05   -1.9476E+05  setid=       0
 node=  6253 local x,y,z forces =    3.8530E+04   -2.4728E+04    0.0000E+00  setid=       0
 node=  6258 local x,y,z forces =    3.7227E+04   -2.0506E+04    0.0000E+00  setid=       0
 node=  6263 local x,y,z forces =    7.1066E+03   -1.4436E+04    0.0000E+00  setid=       0
 node=  6268 local x,y,z forces =   -7.9217E+03   -1.2672E+04    0.0000E+00  setid=       0
 node=  6273 local x,y,z forces =   -1.6192E+04   -1.2039E+04    0.0000E+00  setid=       0
 node=  6278 local x,y,z forces =   -1.9515E+04   -1.0341E+04    0.0000E+00  setid=       0
 node=  6283 local x,y,z forces =   -2.1667E+04   -9.0460E+03    0.0000E+00  setid=       0
 node=  6288 local x,y,z forces =   -2.2542E+04   -7.4477E+03    0.0000E+00  setid=       0
 node=  6293 local x,y,z forces =   -2.3166E+04   -6.0059E+03    0.0000E+00  setid=       0
 node=  6298 local x,y,z forces =   -2.3416E+04   -4.4788E+03    0.0000E+00  setid=       0
 node=  6303 local x,y,z forces =   -2.3616E+04   -2.9967E+03    0.0000E+00  setid=       0
 node=  6308 local x,y,z forces =   -2.3675E+04   -1.4937E+03    0.0000E+00  setid=       0
 node=  6313 local x,y,z forces =   -2.3720E+04   -2.5429E-09    0.0000E+00  setid=       0
 node=  6318 local x,y,z forces =   -2.3675E+04    1.4937E+03    0.0000E+00  setid=       0
 node=  6323 local x,y,z forces =   -2.3616E+04    2.9967E+03    0.0000E+00  setid=       0
 node=  6328 local x,y,z forces =   -2.3416E+04    4.4788E+03    0.0000E+00  setid=       0
 node=  6333 local x,y,z forces =   -2.3166E+04    6.0059E+03    0.0000E+00  setid=       0
 node=  6338 local x,y,z forces =   -2.2542E+04    7.4477E+03    0.0000E+00  setid=       0
 node=  6343 local x,y,z forces =   -2.1667E+04    9.0460E+03    0.0000E+00  setid=       0
 node=  6348 local x,y,z forces =   -1.9515E+04    1.0341E+04    0.0000E+00  setid=       0
 node=  6353 local x,y,z forces =   -1.6192E+04    1.2039E+04    0.0000E+00  setid=       0
 node=  6358 local x,y,z forces =   -7.9217E+03    1.2672E+04    0.0000E+00  setid=       0
 node=  6363 local x,y,z forces =    7.1066E+03    1.4436E+04    0.0000E+00  setid=       0
 node=  6368 local x,y,z forces =    3.7227E+04    2.0506E+04    0.0000E+00  setid=       0
 node=  6373 local x,y,z forces =    3.8530E+04    2.4728E+04    0.0000E+00  setid=       0
             force resultants   =   -1.7436E+02    8.7675E-10   -3.0903E+06
