 400x600                                                                 
                         ls-dyna smp.123264 d           date 01/12/2018

{BEGIN LEGEND}
 Entity #        Title
        0     bottom                                                                
        0     middle                                                                
{END LEGEND}

 single point constraint forces

 output at time =   0.00000E+00
 node=     1 local x,y,z forces =    0.0000E+00    0.0000E+00    0.0000E+00  setid=       0
 node=     1 local x,y,z moments=    0.0000E+00    0.0000E+00    0.0000E+00  setid=       0
 node=     2 local x,y,z forces =    0.0000E+00    0.0000E+00    0.0000E+00  setid=       0
 node=     2 local x,y,z moments=    0.0000E+00    0.0000E+00    0.0000E+00  setid=       0
 node=     3 local x,y,z forces =    0.0000E+00    0.0000E+00    0.0000E+00  setid=       0
 node=     3 local x,y,z moments=    0.0000E+00    0.0000E+00    0.0000E+00  setid=       0
 node=     4 local x,y,z forces =    0.0000E+00    0.0000E+00    0.0000E+00  setid=       0
 node=     4 local x,y,z moments=    0.0000E+00    0.0000E+00    0.0000E+00  setid=       0
 node=     5 local x,y,z forces =    0.0000E+00    0.0000E+00    0.0000E+00  setid=       0
 node=     5 local x,y,z moments=    0.0000E+00    0.0000E+00    0.0000E+00  setid=       0
 node=     6 local x,y,z forces =    0.0000E+00    0.0000E+00    0.0000E+00  setid=       0
 node=     6 local x,y,z moments=    0.0000E+00    0.0000E+00    0.0000E+00  setid=       0
 node=     7 local x,y,z forces =    0.0000E+00    0.0000E+00    0.0000E+00  setid=       0
 node=     7 local x,y,z moments=    0.0000E+00    0.0000E+00    0.0000E+00  setid=       0
 node=     8 local x,y,z forces =    0.0000E+00    0.0000E+00    0.0000E+00  setid=       0
 node=     8 local x,y,z moments=    0.0000E+00    0.0000E+00    0.0000E+00  setid=       0
 node=     9 local x,y,z forces =    0.0000E+00    0.0000E+00    0.0000E+00  setid=       0
 node=     9 local x,y,z moments=    0.0000E+00    0.0000E+00    0.0000E+00  setid=       0
 node=    10 local x,y,z forces =    0.0000E+00    0.0000E+00    0.0000E+00  setid=       0
 node=    10 local x,y,z moments=    0.0000E+00    0.0000E+00    0.0000E+00  setid=       0
 node=    11 local x,y,z forces =    0.0000E+00    0.0000E+00    0.0000E+00  setid=       0
 node=    11 local x,y,z moments=    0.0000E+00    0.0000E+00    0.0000E+00  setid=       0
 node=    12 local x,y,z forces =    0.0000E+00    0.0000E+00    0.0000E+00  setid=       0
 node=    12 local x,y,z moments=    0.0000E+00    0.0000E+00    0.0000E+00  setid=       0
 node=    13 local x,y,z forces =    0.0000E+00    0.0000E+00    0.0000E+00  setid=       0
 node=    13 local x,y,z moments=    0.0000E+00    0.0000E+00    0.0000E+00  setid=       0
 node=    14 local x,y,z forces =    0.0000E+00    0.0000E+00    0.0000E+00  setid=       0
 node=    14 local x,y,z moments=    0.0000E+00    0.0000E+00    0.0000E+00  setid=       0
 node=    15 local x,y,z forces =    0.0000E+00    0.0000E+00    0.0000E+00  setid=       0
 node=    15 local x,y,z moments=    0.0000E+00    0.0000E+00    0.0000E+00  setid=       0
 node=    16 local x,y,z forces =    0.0000E+00    0.0000E+00    0.0000E+00  setid=       0
 node=    16 local x,y,z moments=    0.0000E+00    0.0000E+00    0.0000E+00  setid=       0
 node=    17 local x,y,z forces =    0.0000E+00    0.0000E+00    0.0000E+00  setid=       0
 node=    17 local x,y,z moments=    0.0000E+00    0.0000E+00    0.0000E+00  setid=       0
 node=    18 local x,y,z forces =    0.0000E+00    0.0000E+00    0.0000E+00  setid=       0
 node=    18 local x,y,z moments=    0.0000E+00    0.0000E+00    0.0000E+00  setid=       0
 node=    19 local x,y,z forces =    0.0000E+00    0.0000E+00    0.0000E+00  setid=       0
 node=    19 local x,y,z moments=    0.0000E+00    0.0000E+00    0.0000E+00  setid=       0
 node=    20 local x,y,z forces =    0.0000E+00    0.0000E+00    0.0000E+00  setid=       0
 node=    20 local x,y,z moments=    0.0000E+00    0.0000E+00    0.0000E+00  setid=       0
 node=    21 local x,y,z forces =    0.0000E+00    0.0000E+00    0.0000E+00  setid=       0
 node=    21 local x,y,z moments=    0.0000E+00    0.0000E+00    0.0000E+00  setid=       0
 node=    22 local x,y,z forces =    0.0000E+00    0.0000E+00    0.0000E+00  setid=       0
 node=    22 local x,y,z moments=    0.0000E+00    0.0000E+00    0.0000E+00  setid=       0
 node=    23 local x,y,z forces =    0.0000E+00    0.0000E+00    0.0000E+00  setid=       0
 node=    23 local x,y,z moments=    0.0000E+00    0.0000E+00    0.0000E+00  setid=       0
 node=    24 local x,y,z forces =    0.0000E+00    0.0000E+00    0.0000E+00  setid=       0
 node=    24 local x,y,z moments=    0.0000E+00    0.0000E+00    0.0000E+00  setid=       0
 node=    25 local x,y,z forces =    0.0000E+00    0.0000E+00    0.0000E+00  setid=       0
 node=    25 local x,y,z moments=    0.0000E+00    0.0000E+00    0.0000E+00  setid=       0
 node=    26 local x,y,z forces =    0.0000E+00    0.0000E+00    0.0000E+00  setid=       0
 node=    26 local x,y,z moments=    0.0000E+00    0.0000E+00    0.0000E+00  setid=       0
 node=    27 local x,y,z forces =    0.0000E+00    0.0000E+00    0.0000E+00  setid=       0
 node=    27 local x,y,z moments=    0.0000E+00    0.0000E+00    0.0000E+00  setid=       0
 node=    28 local x,y,z forces =    0.0000E+00    0.0000E+00    0.0000E+00  setid=       0
 node=    28 local x,y,z moments=    0.0000E+00    0.0000E+00    0.0000E+00  setid=       0
 node=    29 local x,y,z forces =    0.0000E+00    0.0000E+00    0.0000E+00  setid=       0
 node=    29 local x,y,z moments=    0.0000E+00    0.0000E+00    0.0000E+00  setid=       0
 node=    30 local x,y,z forces =    0.0000E+00    0.0000E+00    0.0000E+00  setid=       0
 node=    30 local x,y,z moments=    0.0000E+00    0.0000E+00    0.0000E+00  setid=       0
 node=    31 local x,y,z forces =    0.0000E+00    0.0000E+00    0.0000E+00  setid=       0
 node=    31 local x,y,z moments=    0.0000E+00    0.0000E+00    0.0000E+00  setid=       0
 node=    32 local x,y,z forces =    0.0000E+00    0.0000E+00    0.0000E+00  setid=       0
 node=    32 local x,y,z moments=    0.0000E+00    0.0000E+00    0.0000E+00  setid=       0
 node=    33 local x,y,z forces =    0.0000E+00    0.0000E+00    0.0000E+00  setid=       0
 node=    33 local x,y,z moments=    0.0000E+00    0.0000E+00    0.0000E+00  setid=       0
 node=    34 local x,y,z forces =    0.0000E+00    0.0000E+00    0.0000E+00  setid=       0
 node=    34 local x,y,z moments=    0.0000E+00    0.0000E+00    0.0000E+00  setid=       0
 node=    35 local x,y,z forces =    0.0000E+00    0.0000E+00    0.0000E+00  setid=       0
 node=    35 local x,y,z moments=    0.0000E+00    0.0000E+00    0.0000E+00  setid=       0
 node=    36 local x,y,z forces =    0.0000E+00    0.0000E+00    0.0000E+00  setid=       0
 node=    36 local x,y,z moments=    0.0000E+00    0.0000E+00    0.0000E+00  setid=       0
 node=    37 local x,y,z forces =    0.0000E+00    0.0000E+00    0.0000E+00  setid=       0
 node=    37 local x,y,z moments=    0.0000E+00    0.0000E+00    0.0000E+00  setid=       0
 node=    38 local x,y,z forces =    0.0000E+00    0.0000E+00    0.0000E+00  setid=       0
 node=    38 local x,y,z moments=    0.0000E+00    0.0000E+00    0.0000E+00  setid=       0
 node=    39 local x,y,z forces =    0.0000E+00    0.0000E+00    0.0000E+00  setid=       0
 node=    39 local x,y,z moments=    0.0000E+00    0.0000E+00    0.0000E+00  setid=       0
 node=    40 local x,y,z forces =    0.0000E+00    0.0000E+00    0.0000E+00  setid=       0
 node=    40 local x,y,z moments=    0.0000E+00    0.0000E+00    0.0000E+00  setid=       0
 node=    41 local x,y,z forces =    0.0000E+00    0.0000E+00    0.0000E+00  setid=       0
 node=    41 local x,y,z moments=    0.0000E+00    0.0000E+00    0.0000E+00  setid=       0
 node=    42 local x,y,z forces =    0.0000E+00    0.0000E+00    0.0000E+00  setid=       0
 node=    42 local x,y,z moments=    0.0000E+00    0.0000E+00    0.0000E+00  setid=       0
 node=    43 local x,y,z forces =    0.0000E+00    0.0000E+00    0.0000E+00  setid=       0
 node=    43 local x,y,z moments=    0.0000E+00    0.0000E+00    0.0000E+00  setid=       0
 node=    44 local x,y,z forces =    0.0000E+00    0.0000E+00    0.0000E+00  setid=       0
 node=    44 local x,y,z moments=    0.0000E+00    0.0000E+00    0.0000E+00  setid=       0
 node=    45 local x,y,z forces =    0.0000E+00    0.0000E+00    0.0000E+00  setid=       0
 node=    45 local x,y,z moments=    0.0000E+00    0.0000E+00    0.0000E+00  setid=       0
 node=    46 local x,y,z forces =    0.0000E+00    0.0000E+00    0.0000E+00  setid=       0
 node=    46 local x,y,z moments=    0.0000E+00    0.0000E+00    0.0000E+00  setid=       0
 node=    47 local x,y,z forces =    0.0000E+00    0.0000E+00    0.0000E+00  setid=       0
 node=    47 local x,y,z moments=    0.0000E+00    0.0000E+00    0.0000E+00  setid=       0
 node=    48 local x,y,z forces =    0.0000E+00    0.0000E+00    0.0000E+00  setid=       0
 node=    48 local x,y,z moments=    0.0000E+00    0.0000E+00    0.0000E+00  setid=       0
 node=    49 local x,y,z forces =    0.0000E+00    0.0000E+00    0.0000E+00  setid=       0
 node=    49 local x,y,z moments=    0.0000E+00    0.0000E+00    0.0000E+00  setid=       0
 node=    50 local x,y,z forces =    0.0000E+00    0.0000E+00    0.0000E+00  setid=       0
 node=    50 local x,y,z moments=    0.0000E+00    0.0000E+00    0.0000E+00  setid=       0
 node=    51 local x,y,z forces =    0.0000E+00    0.0000E+00    0.0000E+00  setid=       0
 node=    51 local x,y,z moments=    0.0000E+00    0.0000E+00    0.0000E+00  setid=       0
 node=    52 local x,y,z forces =    0.0000E+00    0.0000E+00    0.0000E+00  setid=       0
 node=    52 local x,y,z moments=    0.0000E+00    0.0000E+00    0.0000E+00  setid=       0
 node=    53 local x,y,z forces =    0.0000E+00    0.0000E+00    0.0000E+00  setid=       0
 node=    53 local x,y,z moments=    0.0000E+00    0.0000E+00    0.0000E+00  setid=       0
 node=    54 local x,y,z forces =    0.0000E+00    0.0000E+00    0.0000E+00  setid=       0
 node=    54 local x,y,z moments=    0.0000E+00    0.0000E+00    0.0000E+00  setid=       0
 node=    55 local x,y,z forces =    0.0000E+00    0.0000E+00    0.0000E+00  setid=       0
 node=    55 local x,y,z moments=    0.0000E+00    0.0000E+00    0.0000E+00  setid=       0
 node=    56 local x,y,z forces =    0.0000E+00    0.0000E+00    0.0000E+00  setid=       0
 node=    56 local x,y,z moments=    0.0000E+00    0.0000E+00    0.0000E+00  setid=       0
 node=    57 local x,y,z forces =    0.0000E+00    0.0000E+00    0.0000E+00  setid=       0
 node=    57 local x,y,z moments=    0.0000E+00    0.0000E+00    0.0000E+00  setid=       0
 node=    58 local x,y,z forces =    0.0000E+00    0.0000E+00    0.0000E+00  setid=       0
 node=    58 local x,y,z moments=    0.0000E+00    0.0000E+00    0.0000E+00  setid=       0
 node=    59 local x,y,z forces =    0.0000E+00    0.0000E+00    0.0000E+00  setid=       0
 node=    59 local x,y,z moments=    0.0000E+00    0.0000E+00    0.0000E+00  setid=       0
 node=    60 local x,y,z forces =    0.0000E+00    0.0000E+00    0.0000E+00  setid=       0
 node=    60 local x,y,z moments=    0.0000E+00    0.0000E+00    0.0000E+00  setid=       0
 node=    61 local x,y,z forces =    0.0000E+00    0.0000E+00    0.0000E+00  setid=       0
 node=    61 local x,y,z moments=    0.0000E+00    0.0000E+00    0.0000E+00  setid=       0
 node=    62 local x,y,z forces =    0.0000E+00    0.0000E+00    0.0000E+00  setid=       0
 node=    62 local x,y,z moments=    0.0000E+00    0.0000E+00    0.0000E+00  setid=       0
 node=    63 local x,y,z forces =    0.0000E+00    0.0000E+00    0.0000E+00  setid=       0
 node=    63 local x,y,z moments=    0.0000E+00    0.0000E+00    0.0000E+00  setid=       0
 node=    64 local x,y,z forces =    0.0000E+00    0.0000E+00    0.0000E+00  setid=       0
 node=    64 local x,y,z moments=    0.0000E+00    0.0000E+00    0.0000E+00  setid=       0
 node=    65 local x,y,z forces =    0.0000E+00    0.0000E+00    0.0000E+00  setid=       0
 node=    65 local x,y,z moments=    0.0000E+00    0.0000E+00    0.0000E+00  setid=       0
 node=    66 local x,y,z forces =    0.0000E+00    0.0000E+00    0.0000E+00  setid=       0
 node=    66 local x,y,z moments=    0.0000E+00    0.0000E+00    0.0000E+00  setid=       0
 node=    67 local x,y,z forces =    0.0000E+00    0.0000E+00    0.0000E+00  setid=       0
 node=    67 local x,y,z moments=    0.0000E+00    0.0000E+00    0.0000E+00  setid=       0
 node=    68 local x,y,z forces =    0.0000E+00    0.0000E+00    0.0000E+00  setid=       0
 node=    68 local x,y,z moments=    0.0000E+00    0.0000E+00    0.0000E+00  setid=       0
 node=    69 local x,y,z forces =    0.0000E+00    0.0000E+00    0.0000E+00  setid=       0
 node=    69 local x,y,z moments=    0.0000E+00    0.0000E+00    0.0000E+00  setid=       0
 node=    70 local x,y,z forces =    0.0000E+00    0.0000E+00    0.0000E+00  setid=       0
 node=    70 local x,y,z moments=    0.0000E+00    0.0000E+00    0.0000E+00  setid=       0
 node=    71 local x,y,z forces =    0.0000E+00    0.0000E+00    0.0000E+00  setid=       0
 node=    71 local x,y,z moments=    0.0000E+00    0.0000E+00    0.0000E+00  setid=       0
 node=    72 local x,y,z forces =    0.0000E+00    0.0000E+00    0.0000E+00  setid=       0
 node=    72 local x,y,z moments=    0.0000E+00    0.0000E+00    0.0000E+00  setid=       0
 node=    73 local x,y,z forces =    0.0000E+00    0.0000E+00    0.0000E+00  setid=       0
 node=    73 local x,y,z moments=    0.0000E+00    0.0000E+00    0.0000E+00  setid=       0
 node=    74 local x,y,z forces =    0.0000E+00    0.0000E+00    0.0000E+00  setid=       0
 node=    74 local x,y,z moments=    0.0000E+00    0.0000E+00    0.0000E+00  setid=       0
 node=    75 local x,y,z forces =    0.0000E+00    0.0000E+00    0.0000E+00  setid=       0
 node=    75 local x,y,z moments=    0.0000E+00    0.0000E+00    0.0000E+00  setid=       0
 node=    76 local x,y,z forces =    0.0000E+00    0.0000E+00    0.0000E+00  setid=       0
 node=    76 local x,y,z moments=    0.0000E+00    0.0000E+00    0.0000E+00  setid=       0
 node=    77 local x,y,z forces =    0.0000E+00    0.0000E+00    0.0000E+00  setid=       0
 node=    77 local x,y,z moments=    0.0000E+00    0.0000E+00    0.0000E+00  setid=       0
 node=    78 local x,y,z forces =    0.0000E+00    0.0000E+00    0.0000E+00  setid=       0
 node=    78 local x,y,z moments=    0.0000E+00    0.0000E+00    0.0000E+00  setid=       0
 node=    79 local x,y,z forces =    0.0000E+00    0.0000E+00    0.0000E+00  setid=       0
 node=    79 local x,y,z moments=    0.0000E+00    0.0000E+00    0.0000E+00  setid=       0
 node=    80 local x,y,z forces =    0.0000E+00    0.0000E+00    0.0000E+00  setid=       0
 node=    80 local x,y,z moments=    0.0000E+00    0.0000E+00    0.0000E+00  setid=       0
 node=    81 local x,y,z forces =    0.0000E+00    0.0000E+00    0.0000E+00  setid=       0
 node=    81 local x,y,z moments=    0.0000E+00    0.0000E+00    0.0000E+00  setid=       0
 node=    82 local x,y,z forces =    0.0000E+00    0.0000E+00    0.0000E+00  setid=       0
 node=    82 local x,y,z moments=    0.0000E+00    0.0000E+00    0.0000E+00  setid=       0
 node=    83 local x,y,z forces =    0.0000E+00    0.0000E+00    0.0000E+00  setid=       0
 node=    83 local x,y,z moments=    0.0000E+00    0.0000E+00    0.0000E+00  setid=       0
 node=    84 local x,y,z forces =    0.0000E+00    0.0000E+00    0.0000E+00  setid=       0
 node=    84 local x,y,z moments=    0.0000E+00    0.0000E+00    0.0000E+00  setid=       0
 node=    85 local x,y,z forces =    0.0000E+00    0.0000E+00    0.0000E+00  setid=       0
 node=    85 local x,y,z moments=    0.0000E+00    0.0000E+00    0.0000E+00  setid=       0
 node=    86 local x,y,z forces =    0.0000E+00    0.0000E+00    0.0000E+00  setid=       0
 node=    86 local x,y,z moments=    0.0000E+00    0.0000E+00    0.0000E+00  setid=       0
 node=    87 local x,y,z forces =    0.0000E+00    0.0000E+00    0.0000E+00  setid=       0
 node=    87 local x,y,z moments=    0.0000E+00    0.0000E+00    0.0000E+00  setid=       0
 node=    88 local x,y,z forces =    0.0000E+00    0.0000E+00    0.0000E+00  setid=       0
 node=    88 local x,y,z moments=    0.0000E+00    0.0000E+00    0.0000E+00  setid=       0
 node=    89 local x,y,z forces =    0.0000E+00    0.0000E+00    0.0000E+00  setid=       0
 node=    89 local x,y,z moments=    0.0000E+00    0.0000E+00    0.0000E+00  setid=       0
 node=    90 local x,y,z forces =    0.0000E+00    0.0000E+00    0.0000E+00  setid=       0
 node=    90 local x,y,z moments=    0.0000E+00    0.0000E+00    0.0000E+00  setid=       0
 node=    91 local x,y,z forces =    0.0000E+00    0.0000E+00    0.0000E+00  setid=       0
 node=    91 local x,y,z moments=    0.0000E+00    0.0000E+00    0.0000E+00  setid=       0
 node=  2276 local x,y,z forces =    0.0000E+00    0.0000E+00    0.0000E+00  setid=       0
 node=  2282 local x,y,z forces =    0.0000E+00    0.0000E+00    0.0000E+00  setid=       0
 node=  2283 local x,y,z forces =    0.0000E+00    0.0000E+00    0.0000E+00  setid=       0
 node=  2289 local x,y,z forces =    0.0000E+00    0.0000E+00    0.0000E+00  setid=       0
 node=  2290 local x,y,z forces =    0.0000E+00    0.0000E+00    0.0000E+00  setid=       0
 node=  2296 local x,y,z forces =    0.0000E+00    0.0000E+00    0.0000E+00  setid=       0
 node=  2297 local x,y,z forces =    0.0000E+00    0.0000E+00    0.0000E+00  setid=       0
 node=  2303 local x,y,z forces =    0.0000E+00    0.0000E+00    0.0000E+00  setid=       0
 node=  2304 local x,y,z forces =    0.0000E+00    0.0000E+00    0.0000E+00  setid=       0
 node=  2310 local x,y,z forces =    0.0000E+00    0.0000E+00    0.0000E+00  setid=       0
 node=  2311 local x,y,z forces =    0.0000E+00    0.0000E+00    0.0000E+00  setid=       0
 node=  2317 local x,y,z forces =    0.0000E+00    0.0000E+00    0.0000E+00  setid=       0
 node=  2318 local x,y,z forces =    0.0000E+00    0.0000E+00    0.0000E+00  setid=       0
 node=  2324 local x,y,z forces =    0.0000E+00    0.0000E+00    0.0000E+00  setid=       0
 node=  2325 local x,y,z forces =    0.0000E+00    0.0000E+00    0.0000E+00  setid=       0
 node=  2331 local x,y,z forces =    0.0000E+00    0.0000E+00    0.0000E+00  setid=       0
 node=  2332 local x,y,z forces =    0.0000E+00    0.0000E+00    0.0000E+00  setid=       0
 node=  2338 local x,y,z forces =    0.0000E+00    0.0000E+00    0.0000E+00  setid=       0
 node=  2339 local x,y,z forces =    0.0000E+00    0.0000E+00    0.0000E+00  setid=       0
 node=  2345 local x,y,z forces =    0.0000E+00    0.0000E+00    0.0000E+00  setid=       0
 node=  2346 local x,y,z forces =    0.0000E+00    0.0000E+00    0.0000E+00  setid=       0
 node=  2352 local x,y,z forces =    0.0000E+00    0.0000E+00    0.0000E+00  setid=       0
 node=  2353 local x,y,z forces =    0.0000E+00    0.0000E+00    0.0000E+00  setid=       0
 node=  2359 local x,y,z forces =    0.0000E+00    0.0000E+00    0.0000E+00  setid=       0
 node=  2360 local x,y,z forces =    0.0000E+00    0.0000E+00    0.0000E+00  setid=       0
 node=  2366 local x,y,z forces =    0.0000E+00    0.0000E+00    0.0000E+00  setid=       0
             force resultants   =    0.0000E+00    0.0000E+00    0.0000E+00
 output at time =   2.00000E-04
 node=     1 local x,y,z forces =   -9.7978E+03   -1.2305E+04   -3.4684E+04  setid=       0
 node=     1 local x,y,z moments=    0.0000E+00    0.0000E+00    0.0000E+00  setid=       0
 node=     2 local x,y,z forces =   -5.9153E+03   -2.3412E+04   -5.9534E+04  setid=       0
 node=     2 local x,y,z moments=    0.0000E+00    0.0000E+00    0.0000E+00  setid=       0
 node=     3 local x,y,z forces =   -3.1041E+03   -2.2714E+04   -5.6213E+04  setid=       0
 node=     3 local x,y,z moments=    0.0000E+00    0.0000E+00    0.0000E+00  setid=       0
 node=     4 local x,y,z forces =   -1.7929E-03   -2.2949E+04   -5.7477E+04  setid=       0
 node=     4 local x,y,z moments=    0.0000E+00    0.0000E+00    0.0000E+00  setid=       0
 node=     5 local x,y,z forces =    3.1041E+03   -2.2714E+04   -5.6213E+04  setid=       0
 node=     5 local x,y,z moments=    0.0000E+00    0.0000E+00    0.0000E+00  setid=       0
 node=     6 local x,y,z forces =    5.9153E+03   -2.3412E+04   -5.9534E+04  setid=       0
 node=     6 local x,y,z moments=    0.0000E+00    0.0000E+00    0.0000E+00  setid=       0
 node=     7 local x,y,z forces =    9.7978E+03   -1.2305E+04   -3.4684E+04  setid=       0
 node=     7 local x,y,z moments=    0.0000E+00    0.0000E+00    0.0000E+00  setid=       0
 node=     8 local x,y,z forces =   -1.8248E+04   -7.4034E+03   -5.5883E+04  setid=       0
 node=     8 local x,y,z moments=    0.0000E+00    0.0000E+00    0.0000E+00  setid=       0
 node=     9 local x,y,z forces =   -1.1766E+04   -1.4862E+04   -9.1826E+04  setid=       0
 node=     9 local x,y,z moments=    0.0000E+00    0.0000E+00    0.0000E+00  setid=       0
 node=    10 local x,y,z forces =   -6.1850E+03   -1.5079E+04   -8.4773E+04  setid=       0
 node=    10 local x,y,z moments=    0.0000E+00    0.0000E+00    0.0000E+00  setid=       0
 node=    11 local x,y,z forces =   -3.5770E-03   -1.5214E+04   -8.7198E+04  setid=       0
 node=    11 local x,y,z moments=    0.0000E+00    0.0000E+00    0.0000E+00  setid=       0
 node=    12 local x,y,z forces =    6.1850E+03   -1.5079E+04   -8.4773E+04  setid=       0
 node=    12 local x,y,z moments=    0.0000E+00    0.0000E+00    0.0000E+00  setid=       0
 node=    13 local x,y,z forces =    1.1766E+04   -1.4862E+04   -9.1826E+04  setid=       0
 node=    13 local x,y,z moments=    0.0000E+00    0.0000E+00    0.0000E+00  setid=       0
 node=    14 local x,y,z forces =    1.8248E+04   -7.4034E+03   -5.5883E+04  setid=       0
 node=    14 local x,y,z moments=    0.0000E+00    0.0000E+00    0.0000E+00  setid=       0
 node=    15 local x,y,z forces =   -1.7250E+04   -6.6660E+03   -5.0036E+04  setid=       0
 node=    15 local x,y,z moments=    0.0000E+00    0.0000E+00    0.0000E+00  setid=       0
 node=    16 local x,y,z forces =   -1.1842E+04   -1.3321E+04   -7.9940E+04  setid=       0
 node=    16 local x,y,z moments=    0.0000E+00    0.0000E+00    0.0000E+00  setid=       0
 node=    17 local x,y,z forces =   -6.2762E+03   -1.3466E+04   -7.2737E+04  setid=       0
 node=    17 local x,y,z moments=    0.0000E+00    0.0000E+00    0.0000E+00  setid=       0
 node=    18 local x,y,z forces =   -3.6184E-03   -1.3601E+04   -7.5231E+04  setid=       0
 node=    18 local x,y,z moments=    0.0000E+00    0.0000E+00    0.0000E+00  setid=       0
 node=    19 local x,y,z forces =    6.2762E+03   -1.3466E+04   -7.2737E+04  setid=       0
 node=    19 local x,y,z moments=    0.0000E+00    0.0000E+00    0.0000E+00  setid=       0
 node=    20 local x,y,z forces =    1.1842E+04   -1.3321E+04   -7.9940E+04  setid=       0
 node=    20 local x,y,z moments=    0.0000E+00    0.0000E+00    0.0000E+00  setid=       0
 node=    21 local x,y,z forces =    1.7250E+04   -6.6660E+03   -5.0036E+04  setid=       0
 node=    21 local x,y,z moments=    0.0000E+00    0.0000E+00    0.0000E+00  setid=       0
 node=    22 local x,y,z forces =   -1.7309E+04   -4.0100E+03   -5.0593E+04  setid=       0
 node=    22 local x,y,z moments=    0.0000E+00    0.0000E+00    0.0000E+00  setid=       0
 node=    23 local x,y,z forces =   -1.2025E+04   -7.9297E+03   -8.0914E+04  setid=       0
 node=    23 local x,y,z moments=    0.0000E+00    0.0000E+00    0.0000E+00  setid=       0
 node=    24 local x,y,z forces =   -6.4646E+03   -7.8943E+03   -7.3769E+04  setid=       0
 node=    24 local x,y,z moments=    0.0000E+00    0.0000E+00    0.0000E+00  setid=       0
 node=    25 local x,y,z forces =   -3.7331E-03   -7.9359E+03   -7.6412E+04  setid=       0
 node=    25 local x,y,z moments=    0.0000E+00    0.0000E+00    0.0000E+00  setid=       0
 node=    26 local x,y,z forces =    6.4646E+03   -7.8943E+03   -7.3769E+04  setid=       0
 node=    26 local x,y,z moments=    0.0000E+00    0.0000E+00    0.0000E+00  setid=       0
 node=    27 local x,y,z forces =    1.2025E+04   -7.9297E+03   -8.0914E+04  setid=       0
 node=    27 local x,y,z moments=    0.0000E+00    0.0000E+00    0.0000E+00  setid=       0
 node=    28 local x,y,z forces =    1.7309E+04   -4.0100E+03   -5.0593E+04  setid=       0
 node=    28 local x,y,z moments=    0.0000E+00    0.0000E+00    0.0000E+00  setid=       0
 node=    29 local x,y,z forces =   -1.7277E+04   -2.8008E+03   -4.9923E+04  setid=       0
 node=    29 local x,y,z moments=    0.0000E+00    0.0000E+00    0.0000E+00  setid=       0
 node=    30 local x,y,z forces =   -1.2151E+04   -5.5285E+03   -7.9385E+04  setid=       0
 node=    30 local x,y,z moments=    0.0000E+00    0.0000E+00    0.0000E+00  setid=       0
 node=    31 local x,y,z forces =   -6.5932E+03   -5.4700E+03   -7.2153E+04  setid=       0
 node=    31 local x,y,z moments=    0.0000E+00    0.0000E+00    0.0000E+00  setid=       0
 node=    32 local x,y,z forces =   -3.8083E-03   -5.4756E+03   -7.4848E+04  setid=       0
 node=    32 local x,y,z moments=    0.0000E+00    0.0000E+00    0.0000E+00  setid=       0
 node=    33 local x,y,z forces =    6.5932E+03   -5.4700E+03   -7.2153E+04  setid=       0
 node=    33 local x,y,z moments=    0.0000E+00    0.0000E+00    0.0000E+00  setid=       0
 node=    34 local x,y,z forces =    1.2151E+04   -5.5285E+03   -7.9385E+04  setid=       0
 node=    34 local x,y,z moments=    0.0000E+00    0.0000E+00    0.0000E+00  setid=       0
 node=    35 local x,y,z forces =    1.7277E+04   -2.8008E+03   -4.9923E+04  setid=       0
 node=    35 local x,y,z moments=    0.0000E+00    0.0000E+00    0.0000E+00  setid=       0
 node=    36 local x,y,z forces =   -1.7322E+04   -1.2678E+03   -5.0181E+04  setid=       0
 node=    36 local x,y,z moments=    0.0000E+00    0.0000E+00    0.0000E+00  setid=       0
 node=    37 local x,y,z forces =   -1.2223E+04   -2.4909E+03   -7.9796E+04  setid=       0
 node=    37 local x,y,z moments=    0.0000E+00    0.0000E+00    0.0000E+00  setid=       0
 node=    38 local x,y,z forces =   -6.6622E+03   -2.4462E+03   -7.2519E+04  setid=       0
 node=    38 local x,y,z moments=    0.0000E+00    0.0000E+00    0.0000E+00  setid=       0
 node=    39 local x,y,z forces =   -3.8485E-03   -2.4425E+03   -7.5241E+04  setid=       0
 node=    39 local x,y,z moments=    0.0000E+00    0.0000E+00    0.0000E+00  setid=       0
 node=    40 local x,y,z forces =    6.6622E+03   -2.4462E+03   -7.2519E+04  setid=       0
 node=    40 local x,y,z moments=    0.0000E+00    0.0000E+00    0.0000E+00  setid=       0
 node=    41 local x,y,z forces =    1.2223E+04   -2.4909E+03   -7.9796E+04  setid=       0
 node=    41 local x,y,z moments=    0.0000E+00    0.0000E+00    0.0000E+00  setid=       0
 node=    42 local x,y,z forces =    1.7322E+04   -1.2678E+03   -5.0181E+04  setid=       0
 node=    42 local x,y,z moments=    0.0000E+00    0.0000E+00    0.0000E+00  setid=       0
 node=    43 local x,y,z forces =   -1.7318E+04   -2.5706E+00   -4.9980E+04  setid=       0
 node=    43 local x,y,z moments=    0.0000E+00    0.0000E+00    0.0000E+00  setid=       0
 node=    44 local x,y,z forces =   -1.2246E+04   -3.2174E+00   -7.9348E+04  setid=       0
 node=    44 local x,y,z moments=    0.0000E+00    0.0000E+00    0.0000E+00  setid=       0
 node=    45 local x,y,z forces =   -6.6842E+03   -1.2911E+00   -7.2042E+04  setid=       0
 node=    45 local x,y,z moments=    0.0000E+00    0.0000E+00    0.0000E+00  setid=       0
 node=    46 local x,y,z forces =   -3.8618E-03   -1.0551E+00   -7.4768E+04  setid=       0
 node=    46 local x,y,z moments=    0.0000E+00    0.0000E+00    0.0000E+00  setid=       0
 node=    47 local x,y,z forces =    6.6842E+03   -1.2911E+00   -7.2042E+04  setid=       0
 node=    47 local x,y,z moments=    0.0000E+00    0.0000E+00    0.0000E+00  setid=       0
 node=    48 local x,y,z forces =    1.2246E+04   -3.2174E+00   -7.9349E+04  setid=       0
 node=    48 local x,y,z moments=    0.0000E+00    0.0000E+00    0.0000E+00  setid=       0
 node=    49 local x,y,z forces =    1.7318E+04   -2.5706E+00   -4.9980E+04  setid=       0
 node=    49 local x,y,z moments=    0.0000E+00    0.0000E+00    0.0000E+00  setid=       0
 node=    50 local x,y,z forces =   -1.7329E+04    1.2621E+03   -5.0199E+04  setid=       0
 node=    50 local x,y,z moments=    0.0000E+00    0.0000E+00    0.0000E+00  setid=       0
 node=    51 local x,y,z forces =   -1.2227E+04    2.4835E+03   -7.9825E+04  setid=       0
 node=    51 local x,y,z moments=    0.0000E+00    0.0000E+00    0.0000E+00  setid=       0
 node=    52 local x,y,z forces =   -6.6648E+03    2.4426E+03   -7.2545E+04  setid=       0
 node=    52 local x,y,z moments=    0.0000E+00    0.0000E+00    0.0000E+00  setid=       0
 node=    53 local x,y,z forces =   -3.8500E-03    2.4394E+03   -7.5269E+04  setid=       0
 node=    53 local x,y,z moments=    0.0000E+00    0.0000E+00    0.0000E+00  setid=       0
 node=    54 local x,y,z forces =    6.6648E+03    2.4426E+03   -7.2545E+04  setid=       0
 node=    54 local x,y,z moments=    0.0000E+00    0.0000E+00    0.0000E+00  setid=       0
 node=    55 local x,y,z forces =    1.2227E+04    2.4835E+03   -7.9825E+04  setid=       0
 node=    55 local x,y,z moments=    0.0000E+00    0.0000E+00    0.0000E+00  setid=       0
 node=    56 local x,y,z forces =    1.7329E+04    1.2621E+03   -5.0199E+04  setid=       0
 node=    56 local x,y,z moments=    0.0000E+00    0.0000E+00    0.0000E+00  setid=       0
 node=    57 local x,y,z forces =   -1.7289E+04    2.7956E+03   -4.9960E+04  setid=       0
 node=    57 local x,y,z moments=    0.0000E+00    0.0000E+00    0.0000E+00  setid=       0
 node=    58 local x,y,z forces =   -1.2160E+04    5.5221E+03   -7.9443E+04  setid=       0
 node=    58 local x,y,z moments=    0.0000E+00    0.0000E+00    0.0000E+00  setid=       0
 node=    59 local x,y,z forces =   -6.5985E+03    5.4675E+03   -7.2207E+04  setid=       0
 node=    59 local x,y,z moments=    0.0000E+00    0.0000E+00    0.0000E+00  setid=       0
 node=    60 local x,y,z forces =   -3.8113E-03    5.4736E+03   -7.4904E+04  setid=       0
 node=    60 local x,y,z moments=    0.0000E+00    0.0000E+00    0.0000E+00  setid=       0
 node=    61 local x,y,z forces =    6.5985E+03    5.4675E+03   -7.2207E+04  setid=       0
 node=    61 local x,y,z moments=    0.0000E+00    0.0000E+00    0.0000E+00  setid=       0
 node=    62 local x,y,z forces =    1.2160E+04    5.5221E+03   -7.9443E+04  setid=       0
 node=    62 local x,y,z moments=    0.0000E+00    0.0000E+00    0.0000E+00  setid=       0
 node=    63 local x,y,z forces =    1.7289E+04    2.7956E+03   -4.9960E+04  setid=       0
 node=    63 local x,y,z moments=    0.0000E+00    0.0000E+00    0.0000E+00  setid=       0
 node=    64 local x,y,z forces =   -1.7329E+04    4.0038E+03   -5.0652E+04  setid=       0
 node=    64 local x,y,z moments=    0.0000E+00    0.0000E+00    0.0000E+00  setid=       0
 node=    65 local x,y,z forces =   -1.2039E+04    7.9214E+03   -8.1009E+04  setid=       0
 node=    65 local x,y,z moments=    0.0000E+00    0.0000E+00    0.0000E+00  setid=       0
 node=    66 local x,y,z forces =   -6.4726E+03    7.8899E+03   -7.3858E+04  setid=       0
 node=    66 local x,y,z moments=    0.0000E+00    0.0000E+00    0.0000E+00  setid=       0
 node=    67 local x,y,z forces =   -3.7377E-03    7.9320E+03   -7.6504E+04  setid=       0
 node=    67 local x,y,z moments=    0.0000E+00    0.0000E+00    0.0000E+00  setid=       0
 node=    68 local x,y,z forces =    6.4726E+03    7.8899E+03   -7.3858E+04  setid=       0
 node=    68 local x,y,z moments=    0.0000E+00    0.0000E+00    0.0000E+00  setid=       0
 node=    69 local x,y,z forces =    1.2039E+04    7.9215E+03   -8.1009E+04  setid=       0
 node=    69 local x,y,z moments=    0.0000E+00    0.0000E+00    0.0000E+00  setid=       0
 node=    70 local x,y,z forces =    1.7329E+04    4.0038E+03   -5.0651E+04  setid=       0
 node=    70 local x,y,z moments=    0.0000E+00    0.0000E+00    0.0000E+00  setid=       0
 node=    71 local x,y,z forces =   -1.7278E+04    6.6629E+03   -5.0117E+04  setid=       0
 node=    71 local x,y,z moments=    0.0000E+00    0.0000E+00    0.0000E+00  setid=       0
 node=    72 local x,y,z forces =   -1.1862E+04    1.3319E+04   -8.0070E+04  setid=       0
 node=    72 local x,y,z moments=    0.0000E+00    0.0000E+00    0.0000E+00  setid=       0
 node=    73 local x,y,z forces =   -6.2869E+03    1.3468E+04   -7.2859E+04  setid=       0
 node=    73 local x,y,z moments=    0.0000E+00    0.0000E+00    0.0000E+00  setid=       0
 node=    74 local x,y,z forces =   -3.6246E-03    1.3604E+04   -7.5358E+04  setid=       0
 node=    74 local x,y,z moments=    0.0000E+00    0.0000E+00    0.0000E+00  setid=       0
 node=    75 local x,y,z forces =    6.2869E+03    1.3468E+04   -7.2859E+04  setid=       0
 node=    75 local x,y,z moments=    0.0000E+00    0.0000E+00    0.0000E+00  setid=       0
 node=    76 local x,y,z forces =    1.1862E+04    1.3319E+04   -8.0070E+04  setid=       0
 node=    76 local x,y,z moments=    0.0000E+00    0.0000E+00    0.0000E+00  setid=       0
 node=    77 local x,y,z forces =    1.7278E+04    6.6629E+03   -5.0117E+04  setid=       0
 node=    77 local x,y,z moments=    0.0000E+00    0.0000E+00    0.0000E+00  setid=       0
 node=    78 local x,y,z forces =   -1.8288E+04    7.3981E+03   -5.6005E+04  setid=       0
 node=    78 local x,y,z moments=    0.0000E+00    0.0000E+00    0.0000E+00  setid=       0
 node=    79 local x,y,z forces =   -1.1793E+04    1.4857E+04   -9.2032E+04  setid=       0
 node=    79 local x,y,z moments=    0.0000E+00    0.0000E+00    0.0000E+00  setid=       0
 node=    80 local x,y,z forces =   -6.1993E+03    1.5077E+04   -8.4971E+04  setid=       0
 node=    80 local x,y,z moments=    0.0000E+00    0.0000E+00    0.0000E+00  setid=       0
 node=    81 local x,y,z forces =   -3.5853E-03    1.5214E+04   -8.7403E+04  setid=       0
 node=    81 local x,y,z moments=    0.0000E+00    0.0000E+00    0.0000E+00  setid=       0
 node=    82 local x,y,z forces =    6.1993E+03    1.5077E+04   -8.4971E+04  setid=       0
 node=    82 local x,y,z moments=    0.0000E+00    0.0000E+00    0.0000E+00  setid=       0
 node=    83 local x,y,z forces =    1.1793E+04    1.4857E+04   -9.2032E+04  setid=       0
 node=    83 local x,y,z moments=    0.0000E+00    0.0000E+00    0.0000E+00  setid=       0
 node=    84 local x,y,z forces =    1.8288E+04    7.3981E+03   -5.6005E+04  setid=       0
 node=    84 local x,y,z moments=    0.0000E+00    0.0000E+00    0.0000E+00  setid=       0
 node=    85 local x,y,z forces =   -9.8241E+03    1.2326E+04   -3.4774E+04  setid=       0
 node=    85 local x,y,z moments=    0.0000E+00    0.0000E+00    0.0000E+00  setid=       0
 node=    86 local x,y,z forces =   -5.9333E+03    2.3455E+04   -5.9692E+04  setid=       0
 node=    86 local x,y,z moments=    0.0000E+00    0.0000E+00    0.0000E+00  setid=       0
 node=    87 local x,y,z forces =   -3.1132E+03    2.2759E+04   -5.6368E+04  setid=       0
 node=    87 local x,y,z moments=    0.0000E+00    0.0000E+00    0.0000E+00  setid=       0
 node=    88 local x,y,z forces =   -1.7983E-03    2.2995E+04   -5.7636E+04  setid=       0
 node=    88 local x,y,z moments=    0.0000E+00    0.0000E+00    0.0000E+00  setid=       0
 node=    89 local x,y,z forces =    3.1132E+03    2.2759E+04   -5.6368E+04  setid=       0
 node=    89 local x,y,z moments=    0.0000E+00    0.0000E+00    0.0000E+00  setid=       0
 node=    90 local x,y,z forces =    5.9333E+03    2.3455E+04   -5.9692E+04  setid=       0
 node=    90 local x,y,z moments=    0.0000E+00    0.0000E+00    0.0000E+00  setid=       0
 node=    91 local x,y,z forces =    9.8240E+03    1.2326E+04   -3.4774E+04  setid=       0
 node=    91 local x,y,z moments=    0.0000E+00    0.0000E+00    0.0000E+00  setid=       0
 node=  2276 local x,y,z forces =   -1.7022E+04    0.0000E+00    0.0000E+00  setid=       0
 node=  2282 local x,y,z forces =    1.7022E+04    0.0000E+00    0.0000E+00  setid=       0
 node=  2283 local x,y,z forces =   -3.6535E+04    0.0000E+00    0.0000E+00  setid=       0
 node=  2289 local x,y,z forces =    3.6535E+04    0.0000E+00    0.0000E+00  setid=       0
 node=  2290 local x,y,z forces =   -3.7935E+04    0.0000E+00    0.0000E+00  setid=       0
 node=  2296 local x,y,z forces =    3.7935E+04    0.0000E+00    0.0000E+00  setid=       0
 node=  2297 local x,y,z forces =   -3.8016E+04    0.0000E+00    0.0000E+00  setid=       0
 node=  2303 local x,y,z forces =    3.8016E+04    0.0000E+00    0.0000E+00  setid=       0
 node=  2304 local x,y,z forces =   -3.8172E+04    0.0000E+00    0.0000E+00  setid=       0
 node=  2310 local x,y,z forces =    3.8172E+04    0.0000E+00    0.0000E+00  setid=       0
 node=  2311 local x,y,z forces =   -3.8204E+04    0.0000E+00    0.0000E+00  setid=       0
 node=  2317 local x,y,z forces =    3.8204E+04    0.0000E+00    0.0000E+00  setid=       0
 node=  2318 local x,y,z forces =   -3.8232E+04    0.0000E+00    0.0000E+00  setid=       0
 node=  2324 local x,y,z forces =    3.8232E+04    0.0000E+00    0.0000E+00  setid=       0
 node=  2325 local x,y,z forces =   -3.8215E+04    0.0000E+00    0.0000E+00  setid=       0
 node=  2331 local x,y,z forces =    3.8215E+04    0.0000E+00    0.0000E+00  setid=       0
 node=  2332 local x,y,z forces =   -3.8193E+04    0.0000E+00    0.0000E+00  setid=       0
 node=  2338 local x,y,z forces =    3.8193E+04    0.0000E+00    0.0000E+00  setid=       0
 node=  2339 local x,y,z forces =   -3.8048E+04    0.0000E+00    0.0000E+00  setid=       0
 node=  2345 local x,y,z forces =    3.8048E+04    0.0000E+00    0.0000E+00  setid=       0
 node=  2346 local x,y,z forces =   -3.7978E+04    0.0000E+00    0.0000E+00  setid=       0
 node=  2352 local x,y,z forces =    3.7978E+04    0.0000E+00    0.0000E+00  setid=       0
 node=  2353 local x,y,z forces =   -3.6588E+04    0.0000E+00    0.0000E+00  setid=       0
 node=  2359 local x,y,z forces =    3.6588E+04    0.0000E+00    0.0000E+00  setid=       0
 node=  2360 local x,y,z forces =   -1.7050E+04    0.0000E+00    0.0000E+00  setid=       0
 node=  2366 local x,y,z forces =    1.7050E+04    0.0000E+00    0.0000E+00  setid=       0
             force resultants   =    7.7239E-07    1.1176E+02   -6.1539E+06
 output at time =   4.00000E-04
 node=     1 local x,y,z forces =   -1.9597E+04   -2.4610E+04   -6.9434E+04  setid=       0
 node=     1 local x,y,z moments=    0.0000E+00    0.0000E+00    0.0000E+00  setid=       0
 node=     2 local x,y,z forces =   -1.1831E+04   -4.6824E+04   -1.1917E+05  setid=       0
 node=     2 local x,y,z moments=    0.0000E+00    0.0000E+00    0.0000E+00  setid=       0
 node=     3 local x,y,z forces =   -6.2103E+03   -4.5427E+04   -1.1252E+05  setid=       0
 node=     3 local x,y,z moments=    0.0000E+00    0.0000E+00    0.0000E+00  setid=       0
 node=     4 local x,y,z forces =   -3.5871E-03   -4.5897E+04   -1.1505E+05  setid=       0
 node=     4 local x,y,z moments=    0.0000E+00    0.0000E+00    0.0000E+00  setid=       0
 node=     5 local x,y,z forces =    6.2103E+03   -4.5427E+04   -1.1252E+05  setid=       0
 node=     5 local x,y,z moments=    0.0000E+00    0.0000E+00    0.0000E+00  setid=       0
 node=     6 local x,y,z forces =    1.1831E+04   -4.6824E+04   -1.1917E+05  setid=       0
 node=     6 local x,y,z moments=    0.0000E+00    0.0000E+00    0.0000E+00  setid=       0
 node=     7 local x,y,z forces =    1.9597E+04   -2.4610E+04   -6.9434E+04  setid=       0
 node=     7 local x,y,z moments=    0.0000E+00    0.0000E+00    0.0000E+00  setid=       0
 node=     8 local x,y,z forces =   -3.6498E+04   -1.4804E+04   -1.1186E+05  setid=       0
 node=     8 local x,y,z moments=    0.0000E+00    0.0000E+00    0.0000E+00  setid=       0
 node=     9 local x,y,z forces =   -2.3533E+04   -2.9720E+04   -1.8378E+05  setid=       0
 node=     9 local x,y,z moments=    0.0000E+00    0.0000E+00    0.0000E+00  setid=       0
 node=    10 local x,y,z forces =   -1.2374E+04   -3.0152E+04   -1.6965E+05  setid=       0
 node=    10 local x,y,z moments=    0.0000E+00    0.0000E+00    0.0000E+00  setid=       0
 node=    11 local x,y,z forces =   -7.1560E-03   -3.0423E+04   -1.7451E+05  setid=       0
 node=    11 local x,y,z moments=    0.0000E+00    0.0000E+00    0.0000E+00  setid=       0
 node=    12 local x,y,z forces =    1.2374E+04   -3.0152E+04   -1.6965E+05  setid=       0
 node=    12 local x,y,z moments=    0.0000E+00    0.0000E+00    0.0000E+00  setid=       0
 node=    13 local x,y,z forces =    2.3533E+04   -2.9720E+04   -1.8378E+05  setid=       0
 node=    13 local x,y,z moments=    0.0000E+00    0.0000E+00    0.0000E+00  setid=       0
 node=    14 local x,y,z forces =    3.6498E+04   -1.4804E+04   -1.1186E+05  setid=       0
 node=    14 local x,y,z moments=    0.0000E+00    0.0000E+00    0.0000E+00  setid=       0
 node=    15 local x,y,z forces =   -3.4499E+04   -1.3335E+04   -1.0015E+05  setid=       0
 node=    15 local x,y,z moments=    0.0000E+00    0.0000E+00    0.0000E+00  setid=       0
 node=    16 local x,y,z forces =   -2.3683E+04   -2.6647E+04   -1.5997E+05  setid=       0
 node=    16 local x,y,z moments=    0.0000E+00    0.0000E+00    0.0000E+00  setid=       0
 node=    17 local x,y,z forces =   -1.2556E+04   -2.6936E+04   -1.4554E+05  setid=       0
 node=    17 local x,y,z moments=    0.0000E+00    0.0000E+00    0.0000E+00  setid=       0
 node=    18 local x,y,z forces =   -7.2388E-03   -2.7206E+04   -1.5053E+05  setid=       0
 node=    18 local x,y,z moments=    0.0000E+00    0.0000E+00    0.0000E+00  setid=       0
 node=    19 local x,y,z forces =    1.2556E+04   -2.6936E+04   -1.4554E+05  setid=       0
 node=    19 local x,y,z moments=    0.0000E+00    0.0000E+00    0.0000E+00  setid=       0
 node=    20 local x,y,z forces =    2.3683E+04   -2.6647E+04   -1.5997E+05  setid=       0
 node=    20 local x,y,z moments=    0.0000E+00    0.0000E+00    0.0000E+00  setid=       0
 node=    21 local x,y,z forces =    3.4499E+04   -1.3335E+04   -1.0015E+05  setid=       0
 node=    21 local x,y,z moments=    0.0000E+00    0.0000E+00    0.0000E+00  setid=       0
 node=    22 local x,y,z forces =   -3.4617E+04   -8.0205E+03   -1.0126E+05  setid=       0
 node=    22 local x,y,z moments=    0.0000E+00    0.0000E+00    0.0000E+00  setid=       0
 node=    23 local x,y,z forces =   -2.4049E+04   -1.5860E+04   -1.6192E+05  setid=       0
 node=    23 local x,y,z moments=    0.0000E+00    0.0000E+00    0.0000E+00  setid=       0
 node=    24 local x,y,z forces =   -1.2933E+04   -1.5789E+04   -1.4760E+05  setid=       0
 node=    24 local x,y,z moments=    0.0000E+00    0.0000E+00    0.0000E+00  setid=       0
 node=    25 local x,y,z forces =   -7.4680E-03   -1.5872E+04   -1.5290E+05  setid=       0
 node=    25 local x,y,z moments=    0.0000E+00    0.0000E+00    0.0000E+00  setid=       0
 node=    26 local x,y,z forces =    1.2933E+04   -1.5789E+04   -1.4760E+05  setid=       0
 node=    26 local x,y,z moments=    0.0000E+00    0.0000E+00    0.0000E+00  setid=       0
 node=    27 local x,y,z forces =    2.4049E+04   -1.5860E+04   -1.6192E+05  setid=       0
 node=    27 local x,y,z moments=    0.0000E+00    0.0000E+00    0.0000E+00  setid=       0
 node=    28 local x,y,z forces =    3.4617E+04   -8.0205E+03   -1.0126E+05  setid=       0
 node=    28 local x,y,z moments=    0.0000E+00    0.0000E+00    0.0000E+00  setid=       0
 node=    29 local x,y,z forces =   -3.4552E+04   -5.6024E+03   -9.9914E+04  setid=       0
 node=    29 local x,y,z moments=    0.0000E+00    0.0000E+00    0.0000E+00  setid=       0
 node=    30 local x,y,z forces =   -2.4301E+04   -1.1058E+04   -1.5885E+05  setid=       0
 node=    30 local x,y,z moments=    0.0000E+00    0.0000E+00    0.0000E+00  setid=       0
 node=    31 local x,y,z forces =   -1.3190E+04   -1.0941E+04   -1.4437E+05  setid=       0
 node=    31 local x,y,z moments=    0.0000E+00    0.0000E+00    0.0000E+00  setid=       0
 node=    32 local x,y,z forces =   -7.6183E-03   -1.0952E+04   -1.4976E+05  setid=       0
 node=    32 local x,y,z moments=    0.0000E+00    0.0000E+00    0.0000E+00  setid=       0
 node=    33 local x,y,z forces =    1.3190E+04   -1.0941E+04   -1.4437E+05  setid=       0
 node=    33 local x,y,z moments=    0.0000E+00    0.0000E+00    0.0000E+00  setid=       0
 node=    34 local x,y,z forces =    2.4301E+04   -1.1058E+04   -1.5885E+05  setid=       0
 node=    34 local x,y,z moments=    0.0000E+00    0.0000E+00    0.0000E+00  setid=       0
 node=    35 local x,y,z forces =    3.4552E+04   -5.6024E+03   -9.9914E+04  setid=       0
 node=    35 local x,y,z moments=    0.0000E+00    0.0000E+00    0.0000E+00  setid=       0
 node=    36 local x,y,z forces =   -3.4643E+04   -2.5353E+03   -1.0043E+05  setid=       0
 node=    36 local x,y,z moments=    0.0000E+00    0.0000E+00    0.0000E+00  setid=       0
 node=    37 local x,y,z forces =   -2.4444E+04   -4.9813E+03   -1.5967E+05  setid=       0
 node=    37 local x,y,z moments=    0.0000E+00    0.0000E+00    0.0000E+00  setid=       0
 node=    38 local x,y,z forces =   -1.3328E+04   -4.8919E+03   -1.4510E+05  setid=       0
 node=    38 local x,y,z moments=    0.0000E+00    0.0000E+00    0.0000E+00  setid=       0
 node=    39 local x,y,z forces =   -7.6986E-03   -4.8844E+03   -1.5055E+05  setid=       0
 node=    39 local x,y,z moments=    0.0000E+00    0.0000E+00    0.0000E+00  setid=       0
 node=    40 local x,y,z forces =    1.3328E+04   -4.8919E+03   -1.4510E+05  setid=       0
 node=    40 local x,y,z moments=    0.0000E+00    0.0000E+00    0.0000E+00  setid=       0
 node=    41 local x,y,z forces =    2.4444E+04   -4.9813E+03   -1.5967E+05  setid=       0
 node=    41 local x,y,z moments=    0.0000E+00    0.0000E+00    0.0000E+00  setid=       0
 node=    42 local x,y,z forces =    3.4643E+04   -2.5353E+03   -1.0043E+05  setid=       0
 node=    42 local x,y,z moments=    0.0000E+00    0.0000E+00    0.0000E+00  setid=       0
 node=    43 local x,y,z forces =   -3.4634E+04   -4.4290E+00   -1.0003E+05  setid=       0
 node=    43 local x,y,z moments=    0.0000E+00    0.0000E+00    0.0000E+00  setid=       0
 node=    44 local x,y,z forces =   -2.4490E+04   -5.2992E+00   -1.5877E+05  setid=       0
 node=    44 local x,y,z moments=    0.0000E+00    0.0000E+00    0.0000E+00  setid=       0
 node=    45 local x,y,z forces =   -1.3372E+04   -1.7496E+00   -1.4414E+05  setid=       0
 node=    45 local x,y,z moments=    0.0000E+00    0.0000E+00    0.0000E+00  setid=       0
 node=    46 local x,y,z forces =   -7.7251E-03   -1.3275E+00   -1.4960E+05  setid=       0
 node=    46 local x,y,z moments=    0.0000E+00    0.0000E+00    0.0000E+00  setid=       0
 node=    47 local x,y,z forces =    1.3372E+04   -1.7496E+00   -1.4414E+05  setid=       0
 node=    47 local x,y,z moments=    0.0000E+00    0.0000E+00    0.0000E+00  setid=       0
 node=    48 local x,y,z forces =    2.4490E+04   -5.2992E+00   -1.5877E+05  setid=       0
 node=    48 local x,y,z moments=    0.0000E+00    0.0000E+00    0.0000E+00  setid=       0
 node=    49 local x,y,z forces =    3.4634E+04   -4.4290E+00   -1.0003E+05  setid=       0
 node=    49 local x,y,z moments=    0.0000E+00    0.0000E+00    0.0000E+00  setid=       0
 node=    50 local x,y,z forces =   -3.4655E+04    2.5255E+03   -1.0046E+05  setid=       0
 node=    50 local x,y,z moments=    0.0000E+00    0.0000E+00    0.0000E+00  setid=       0
 node=    51 local x,y,z forces =   -2.4453E+04    4.9687E+03   -1.5973E+05  setid=       0
 node=    51 local x,y,z moments=    0.0000E+00    0.0000E+00    0.0000E+00  setid=       0
 node=    52 local x,y,z forces =   -1.3333E+04    4.8864E+03   -1.4515E+05  setid=       0
 node=    52 local x,y,z moments=    0.0000E+00    0.0000E+00    0.0000E+00  setid=       0
 node=    53 local x,y,z forces =   -7.7014E-03    4.8798E+03   -1.5060E+05  setid=       0
 node=    53 local x,y,z moments=    0.0000E+00    0.0000E+00    0.0000E+00  setid=       0
 node=    54 local x,y,z forces =    1.3333E+04    4.8864E+03   -1.4515E+05  setid=       0
 node=    54 local x,y,z moments=    0.0000E+00    0.0000E+00    0.0000E+00  setid=       0
 node=    55 local x,y,z forces =    2.4453E+04    4.9688E+03   -1.5973E+05  setid=       0
 node=    55 local x,y,z moments=    0.0000E+00    0.0000E+00    0.0000E+00  setid=       0
 node=    56 local x,y,z forces =    3.4655E+04    2.5255E+03   -1.0046E+05  setid=       0
 node=    56 local x,y,z moments=    0.0000E+00    0.0000E+00    0.0000E+00  setid=       0
 node=    57 local x,y,z forces =   -3.4576E+04    5.5932E+03   -9.9982E+04  setid=       0
 node=    57 local x,y,z moments=    0.0000E+00    0.0000E+00    0.0000E+00  setid=       0
 node=    58 local x,y,z forces =   -2.4319E+04    1.1047E+04   -1.5896E+05  setid=       0
 node=    58 local x,y,z moments=    0.0000E+00    0.0000E+00    0.0000E+00  setid=       0
 node=    59 local x,y,z forces =   -1.3200E+04    1.0937E+04   -1.4447E+05  setid=       0
 node=    59 local x,y,z moments=    0.0000E+00    0.0000E+00    0.0000E+00  setid=       0
 node=    60 local x,y,z forces =   -7.6240E-03    1.0949E+04   -1.4987E+05  setid=       0
 node=    60 local x,y,z moments=    0.0000E+00    0.0000E+00    0.0000E+00  setid=       0
 node=    61 local x,y,z forces =    1.3200E+04    1.0937E+04   -1.4447E+05  setid=       0
 node=    61 local x,y,z moments=    0.0000E+00    0.0000E+00    0.0000E+00  setid=       0
 node=    62 local x,y,z forces =    2.4319E+04    1.1047E+04   -1.5896E+05  setid=       0
 node=    62 local x,y,z moments=    0.0000E+00    0.0000E+00    0.0000E+00  setid=       0
 node=    63 local x,y,z forces =    3.4576E+04    5.5932E+03   -9.9982E+04  setid=       0
 node=    63 local x,y,z moments=    0.0000E+00    0.0000E+00    0.0000E+00  setid=       0
 node=    64 local x,y,z forces =   -3.4655E+04    8.0090E+03   -1.0137E+05  setid=       0
 node=    64 local x,y,z moments=    0.0000E+00    0.0000E+00    0.0000E+00  setid=       0
 node=    65 local x,y,z forces =   -2.4077E+04    1.5845E+04   -1.6209E+05  setid=       0
 node=    65 local x,y,z moments=    0.0000E+00    0.0000E+00    0.0000E+00  setid=       0
 node=    66 local x,y,z forces =   -1.2948E+04    1.5781E+04   -1.4777E+05  setid=       0
 node=    66 local x,y,z moments=    0.0000E+00    0.0000E+00    0.0000E+00  setid=       0
 node=    67 local x,y,z forces =   -7.4767E-03    1.5865E+04   -1.5307E+05  setid=       0
 node=    67 local x,y,z moments=    0.0000E+00    0.0000E+00    0.0000E+00  setid=       0
 node=    68 local x,y,z forces =    1.2948E+04    1.5781E+04   -1.4777E+05  setid=       0
 node=    68 local x,y,z moments=    0.0000E+00    0.0000E+00    0.0000E+00  setid=       0
 node=    69 local x,y,z forces =    2.4077E+04    1.5845E+04   -1.6209E+05  setid=       0
 node=    69 local x,y,z moments=    0.0000E+00    0.0000E+00    0.0000E+00  setid=       0
 node=    70 local x,y,z forces =    3.4655E+04    8.0090E+03   -1.0137E+05  setid=       0
 node=    70 local x,y,z moments=    0.0000E+00    0.0000E+00    0.0000E+00  setid=       0
 node=    71 local x,y,z forces =   -3.4552E+04    1.3329E+04   -1.0030E+05  setid=       0
 node=    71 local x,y,z moments=    0.0000E+00    0.0000E+00    0.0000E+00  setid=       0
 node=    72 local x,y,z forces =   -2.3721E+04    2.6643E+04   -1.6021E+05  setid=       0
 node=    72 local x,y,z moments=    0.0000E+00    0.0000E+00    0.0000E+00  setid=       0
 node=    73 local x,y,z forces =   -1.2576E+04    2.6941E+04   -1.4577E+05  setid=       0
 node=    73 local x,y,z moments=    0.0000E+00    0.0000E+00    0.0000E+00  setid=       0
 node=    74 local x,y,z forces =   -7.2503E-03    2.7211E+04   -1.5077E+05  setid=       0
 node=    74 local x,y,z moments=    0.0000E+00    0.0000E+00    0.0000E+00  setid=       0
 node=    75 local x,y,z forces =    1.2576E+04    2.6941E+04   -1.4577E+05  setid=       0
 node=    75 local x,y,z moments=    0.0000E+00    0.0000E+00    0.0000E+00  setid=       0
 node=    76 local x,y,z forces =    2.3721E+04    2.6643E+04   -1.6021E+05  setid=       0
 node=    76 local x,y,z moments=    0.0000E+00    0.0000E+00    0.0000E+00  setid=       0
 node=    77 local x,y,z forces =    3.4552E+04    1.3328E+04   -1.0030E+05  setid=       0
 node=    77 local x,y,z moments=    0.0000E+00    0.0000E+00    0.0000E+00  setid=       0
 node=    78 local x,y,z forces =   -3.6574E+04    1.4792E+04   -1.1209E+05  setid=       0
 node=    78 local x,y,z moments=    0.0000E+00    0.0000E+00    0.0000E+00  setid=       0
 node=    79 local x,y,z forces =   -2.3584E+04    2.9706E+04   -1.8417E+05  setid=       0
 node=    79 local x,y,z moments=    0.0000E+00    0.0000E+00    0.0000E+00  setid=       0
 node=    80 local x,y,z forces =   -1.2401E+04    3.0148E+04   -1.7002E+05  setid=       0
 node=    80 local x,y,z moments=    0.0000E+00    0.0000E+00    0.0000E+00  setid=       0
 node=    81 local x,y,z forces =   -7.1717E-03    3.0420E+04   -1.7489E+05  setid=       0
 node=    81 local x,y,z moments=    0.0000E+00    0.0000E+00    0.0000E+00  setid=       0
 node=    82 local x,y,z forces =    1.2401E+04    3.0148E+04   -1.7002E+05  setid=       0
 node=    82 local x,y,z moments=    0.0000E+00    0.0000E+00    0.0000E+00  setid=       0
 node=    83 local x,y,z forces =    2.3584E+04    2.9706E+04   -1.8417E+05  setid=       0
 node=    83 local x,y,z moments=    0.0000E+00    0.0000E+00    0.0000E+00  setid=       0
 node=    84 local x,y,z forces =    3.6574E+04    1.4792E+04   -1.1209E+05  setid=       0
 node=    84 local x,y,z moments=    0.0000E+00    0.0000E+00    0.0000E+00  setid=       0
 node=    85 local x,y,z forces =   -1.9647E+04    2.4650E+04   -6.9605E+04  setid=       0
 node=    85 local x,y,z moments=    0.0000E+00    0.0000E+00    0.0000E+00  setid=       0
 node=    86 local x,y,z forces =   -1.1865E+04    4.6904E+04   -1.1947E+05  setid=       0
 node=    86 local x,y,z moments=    0.0000E+00    0.0000E+00    0.0000E+00  setid=       0
 node=    87 local x,y,z forces =   -6.2278E+03    4.5510E+04   -1.1281E+05  setid=       0
 node=    87 local x,y,z moments=    0.0000E+00    0.0000E+00    0.0000E+00  setid=       0
 node=    88 local x,y,z forces =   -3.5973E-03    4.5982E+04   -1.1535E+05  setid=       0
 node=    88 local x,y,z moments=    0.0000E+00    0.0000E+00    0.0000E+00  setid=       0
 node=    89 local x,y,z forces =    6.2278E+03    4.5510E+04   -1.1281E+05  setid=       0
 node=    89 local x,y,z moments=    0.0000E+00    0.0000E+00    0.0000E+00  setid=       0
 node=    90 local x,y,z forces =    1.1865E+04    4.6904E+04   -1.1947E+05  setid=       0
 node=    90 local x,y,z moments=    0.0000E+00    0.0000E+00    0.0000E+00  setid=       0
 node=    91 local x,y,z forces =    1.9647E+04    2.4650E+04   -6.9605E+04  setid=       0
 node=    91 local x,y,z moments=    0.0000E+00    0.0000E+00    0.0000E+00  setid=       0
 node=  2276 local x,y,z forces =   -3.4037E+04    0.0000E+00    0.0000E+00  setid=       0
 node=  2282 local x,y,z forces =    3.4037E+04    0.0000E+00    0.0000E+00  setid=       0
 node=  2283 local x,y,z forces =   -7.3059E+04    0.0000E+00    0.0000E+00  setid=       0
 node=  2289 local x,y,z forces =    7.3059E+04    0.0000E+00    0.0000E+00  setid=       0
 node=  2290 local x,y,z forces =   -7.5862E+04    0.0000E+00    0.0000E+00  setid=       0
 node=  2296 local x,y,z forces =    7.5862E+04    0.0000E+00    0.0000E+00  setid=       0
 node=  2297 local x,y,z forces =   -7.6024E+04    0.0000E+00    0.0000E+00  setid=       0
 node=  2303 local x,y,z forces =    7.6024E+04    0.0000E+00    0.0000E+00  setid=       0
 node=  2304 local x,y,z forces =   -7.6337E+04    0.0000E+00    0.0000E+00  setid=       0
 node=  2310 local x,y,z forces =    7.6337E+04    0.0000E+00    0.0000E+00  setid=       0
 node=  2311 local x,y,z forces =   -7.6403E+04    0.0000E+00    0.0000E+00  setid=       0
 node=  2317 local x,y,z forces =    7.6403E+04    0.0000E+00    0.0000E+00  setid=       0
 node=  2318 local x,y,z forces =   -7.6460E+04    0.0000E+00    0.0000E+00  setid=       0
 node=  2324 local x,y,z forces =    7.6460E+04    0.0000E+00    0.0000E+00  setid=       0
 node=  2325 local x,y,z forces =   -7.6426E+04    0.0000E+00    0.0000E+00  setid=       0
 node=  2331 local x,y,z forces =    7.6426E+04    0.0000E+00    0.0000E+00  setid=       0
 node=  2332 local x,y,z forces =   -7.6383E+04    0.0000E+00    0.0000E+00  setid=       0
 node=  2338 local x,y,z forces =    7.6383E+04    0.0000E+00    0.0000E+00  setid=       0
 node=  2339 local x,y,z forces =   -7.6094E+04    0.0000E+00    0.0000E+00  setid=       0
 node=  2345 local x,y,z forces =    7.6094E+04    0.0000E+00    0.0000E+00  setid=       0
 node=  2346 local x,y,z forces =   -7.5956E+04    0.0000E+00    0.0000E+00  setid=       0
 node=  2352 local x,y,z forces =    7.5956E+04    0.0000E+00    0.0000E+00  setid=       0
 node=  2353 local x,y,z forces =   -7.3174E+04    0.0000E+00    0.0000E+00  setid=       0
 node=  2359 local x,y,z forces =    7.3174E+04    0.0000E+00    0.0000E+00  setid=       0
 node=  2360 local x,y,z forces =   -3.4099E+04    0.0000E+00    0.0000E+00  setid=       0
 node=  2366 local x,y,z forces =    3.4099E+04    0.0000E+00    0.0000E+00  setid=       0
             force resultants   =    1.5179E-06    2.1127E+02   -1.2314E+07
 output at time =   6.00000E-04
 node=     1 local x,y,z forces =   -2.9399E+04   -3.6916E+04   -1.0425E+05  setid=       0
 node=     1 local x,y,z moments=    0.0000E+00    0.0000E+00    0.0000E+00  setid=       0
 node=     2 local x,y,z forces =   -1.7746E+04   -7.0236E+04   -1.7891E+05  setid=       0
 node=     2 local x,y,z moments=    0.0000E+00    0.0000E+00    0.0000E+00  setid=       0
 node=     3 local x,y,z forces =   -9.3189E+03   -6.8138E+04   -1.6891E+05  setid=       0
 node=     3 local x,y,z moments=    0.0000E+00    0.0000E+00    0.0000E+00  setid=       0
 node=     4 local x,y,z forces =   -5.3826E-03   -6.8843E+04   -1.7271E+05  setid=       0
 node=     4 local x,y,z moments=    0.0000E+00    0.0000E+00    0.0000E+00  setid=       0
 node=     5 local x,y,z forces =    9.3189E+03   -6.8138E+04   -1.6891E+05  setid=       0
 node=     5 local x,y,z moments=    0.0000E+00    0.0000E+00    0.0000E+00  setid=       0
 node=     6 local x,y,z forces =    1.7746E+04   -7.0236E+04   -1.7891E+05  setid=       0
 node=     6 local x,y,z moments=    0.0000E+00    0.0000E+00    0.0000E+00  setid=       0
 node=     7 local x,y,z forces =    2.9399E+04   -3.6916E+04   -1.0425E+05  setid=       0
 node=     7 local x,y,z moments=    0.0000E+00    0.0000E+00    0.0000E+00  setid=       0
 node=     8 local x,y,z forces =   -5.4751E+04   -2.2201E+04   -1.6793E+05  setid=       0
 node=     8 local x,y,z moments=    0.0000E+00    0.0000E+00    0.0000E+00  setid=       0
 node=     9 local x,y,z forces =   -3.5301E+04   -4.4572E+04   -2.7586E+05  setid=       0
 node=     9 local x,y,z moments=    0.0000E+00    0.0000E+00    0.0000E+00  setid=       0
 node=    10 local x,y,z forces =   -1.8567E+04   -4.5222E+04   -2.5463E+05  setid=       0
 node=    10 local x,y,z moments=    0.0000E+00    0.0000E+00    0.0000E+00  setid=       0
 node=    11 local x,y,z forces =   -1.0737E-02   -4.5628E+04   -2.6192E+05  setid=       0
 node=    11 local x,y,z moments=    0.0000E+00    0.0000E+00    0.0000E+00  setid=       0
 node=    12 local x,y,z forces =    1.8567E+04   -4.5222E+04   -2.5463E+05  setid=       0
 node=    12 local x,y,z moments=    0.0000E+00    0.0000E+00    0.0000E+00  setid=       0
 node=    13 local x,y,z forces =    3.5301E+04   -4.4572E+04   -2.7586E+05  setid=       0
 node=    13 local x,y,z moments=    0.0000E+00    0.0000E+00    0.0000E+00  setid=       0
 node=    14 local x,y,z forces =    5.4751E+04   -2.2201E+04   -1.6793E+05  setid=       0
 node=    14 local x,y,z moments=    0.0000E+00    0.0000E+00    0.0000E+00  setid=       0
 node=    15 local x,y,z forces =   -5.1750E+04   -2.0006E+04   -1.5033E+05  setid=       0
 node=    15 local x,y,z moments=    0.0000E+00    0.0000E+00    0.0000E+00  setid=       0
 node=    16 local x,y,z forces =   -3.5525E+04   -3.9978E+04   -2.4009E+05  setid=       0
 node=    16 local x,y,z moments=    0.0000E+00    0.0000E+00    0.0000E+00  setid=       0
 node=    17 local x,y,z forces =   -1.8840E+04   -4.0412E+04   -2.1842E+05  setid=       0
 node=    17 local x,y,z moments=    0.0000E+00    0.0000E+00    0.0000E+00  setid=       0
 node=    18 local x,y,z forces =   -1.0861E-02   -4.0816E+04   -2.2591E+05  setid=       0
 node=    18 local x,y,z moments=    0.0000E+00    0.0000E+00    0.0000E+00  setid=       0
 node=    19 local x,y,z forces =    1.8840E+04   -4.0412E+04   -2.1842E+05  setid=       0
 node=    19 local x,y,z moments=    0.0000E+00    0.0000E+00    0.0000E+00  setid=       0
 node=    20 local x,y,z forces =    3.5525E+04   -3.9978E+04   -2.4009E+05  setid=       0
 node=    20 local x,y,z moments=    0.0000E+00    0.0000E+00    0.0000E+00  setid=       0
 node=    21 local x,y,z forces =    5.1750E+04   -2.0006E+04   -1.5033E+05  setid=       0
 node=    21 local x,y,z moments=    0.0000E+00    0.0000E+00    0.0000E+00  setid=       0
 node=    22 local x,y,z forces =   -5.1925E+04   -1.2031E+04   -1.5199E+05  setid=       0
 node=    22 local x,y,z moments=    0.0000E+00    0.0000E+00    0.0000E+00  setid=       0
 node=    23 local x,y,z forces =   -3.6073E+04   -2.3791E+04   -2.4301E+05  setid=       0
 node=    23 local x,y,z moments=    0.0000E+00    0.0000E+00    0.0000E+00  setid=       0
 node=    24 local x,y,z forces =   -1.9405E+04   -2.3683E+04   -2.2151E+05  setid=       0
 node=    24 local x,y,z moments=    0.0000E+00    0.0000E+00    0.0000E+00  setid=       0
 node=    25 local x,y,z forces =   -1.1205E-02   -2.3808E+04   -2.2945E+05  setid=       0
 node=    25 local x,y,z moments=    0.0000E+00    0.0000E+00    0.0000E+00  setid=       0
 node=    26 local x,y,z forces =    1.9405E+04   -2.3683E+04   -2.2151E+05  setid=       0
 node=    26 local x,y,z moments=    0.0000E+00    0.0000E+00    0.0000E+00  setid=       0
 node=    27 local x,y,z forces =    3.6073E+04   -2.3791E+04   -2.4301E+05  setid=       0
 node=    27 local x,y,z moments=    0.0000E+00    0.0000E+00    0.0000E+00  setid=       0
 node=    28 local x,y,z forces =    5.1925E+04   -1.2031E+04   -1.5199E+05  setid=       0
 node=    28 local x,y,z moments=    0.0000E+00    0.0000E+00    0.0000E+00  setid=       0
 node=    29 local x,y,z forces =   -5.1827E+04   -8.4048E+03   -1.4997E+05  setid=       0
 node=    29 local x,y,z moments=    0.0000E+00    0.0000E+00    0.0000E+00  setid=       0
 node=    30 local x,y,z forces =   -3.6451E+04   -1.6589E+04   -2.3840E+05  setid=       0
 node=    30 local x,y,z moments=    0.0000E+00    0.0000E+00    0.0000E+00  setid=       0
 node=    31 local x,y,z forces =   -1.9790E+04   -1.6413E+04   -2.1664E+05  setid=       0
 node=    31 local x,y,z moments=    0.0000E+00    0.0000E+00    0.0000E+00  setid=       0
 node=    32 local x,y,z forces =   -1.1430E-02   -1.6430E+04   -2.2474E+05  setid=       0
 node=    32 local x,y,z moments=    0.0000E+00    0.0000E+00    0.0000E+00  setid=       0
 node=    33 local x,y,z forces =    1.9790E+04   -1.6413E+04   -2.1664E+05  setid=       0
 node=    33 local x,y,z moments=    0.0000E+00    0.0000E+00    0.0000E+00  setid=       0
 node=    34 local x,y,z forces =    3.6451E+04   -1.6589E+04   -2.3840E+05  setid=       0
 node=    34 local x,y,z moments=    0.0000E+00    0.0000E+00    0.0000E+00  setid=       0
 node=    35 local x,y,z forces =    5.1827E+04   -8.4048E+03   -1.4997E+05  setid=       0
 node=    35 local x,y,z moments=    0.0000E+00    0.0000E+00    0.0000E+00  setid=       0
 node=    36 local x,y,z forces =   -5.1963E+04   -3.8025E+03   -1.5074E+05  setid=       0
 node=    36 local x,y,z moments=    0.0000E+00    0.0000E+00    0.0000E+00  setid=       0
 node=    37 local x,y,z forces =   -3.6665E+04   -7.4709E+03   -2.3963E+05  setid=       0
 node=    37 local x,y,z moments=    0.0000E+00    0.0000E+00    0.0000E+00  setid=       0
 node=    38 local x,y,z forces =   -1.9997E+04   -7.3369E+03   -2.1773E+05  setid=       0
 node=    38 local x,y,z moments=    0.0000E+00    0.0000E+00    0.0000E+00  setid=       0
 node=    39 local x,y,z forces =   -1.1550E-02   -7.3257E+03   -2.2591E+05  setid=       0
 node=    39 local x,y,z moments=    0.0000E+00    0.0000E+00    0.0000E+00  setid=       0
 node=    40 local x,y,z forces =    1.9997E+04   -7.3369E+03   -2.1773E+05  setid=       0
 node=    40 local x,y,z moments=    0.0000E+00    0.0000E+00    0.0000E+00  setid=       0
 node=    41 local x,y,z forces =    3.6665E+04   -7.4709E+03   -2.3963E+05  setid=       0
 node=    41 local x,y,z moments=    0.0000E+00    0.0000E+00    0.0000E+00  setid=       0
 node=    42 local x,y,z forces =    5.1963E+04   -3.8025E+03   -1.5074E+05  setid=       0
 node=    42 local x,y,z moments=    0.0000E+00    0.0000E+00    0.0000E+00  setid=       0
 node=    43 local x,y,z forces =   -5.1949E+04   -5.3996E+00   -1.5014E+05  setid=       0
 node=    43 local x,y,z moments=    0.0000E+00    0.0000E+00    0.0000E+00  setid=       0
 node=    44 local x,y,z forces =   -3.6733E+04   -5.9709E+00   -2.3828E+05  setid=       0
 node=    44 local x,y,z moments=    0.0000E+00    0.0000E+00    0.0000E+00  setid=       0
 node=    45 local x,y,z forces =   -2.0062E+04   -1.1803E+00   -2.1629E+05  setid=       0
 node=    45 local x,y,z moments=    0.0000E+00    0.0000E+00    0.0000E+00  setid=       0
 node=    46 local x,y,z forces =   -1.1590E-02   -6.3359E-01   -2.2449E+05  setid=       0
 node=    46 local x,y,z moments=    0.0000E+00    0.0000E+00    0.0000E+00  setid=       0
 node=    47 local x,y,z forces =    2.0062E+04   -1.1803E+00   -2.1629E+05  setid=       0
 node=    47 local x,y,z moments=    0.0000E+00    0.0000E+00    0.0000E+00  setid=       0
 node=    48 local x,y,z forces =    3.6733E+04   -5.9709E+00   -2.3828E+05  setid=       0
 node=    48 local x,y,z moments=    0.0000E+00    0.0000E+00    0.0000E+00  setid=       0
 node=    49 local x,y,z forces =    5.1949E+04   -5.3996E+00   -1.5014E+05  setid=       0
 node=    49 local x,y,z moments=    0.0000E+00    0.0000E+00    0.0000E+00  setid=       0
 node=    50 local x,y,z forces =   -5.1979E+04    3.7901E+03   -1.5079E+05  setid=       0
 node=    50 local x,y,z moments=    0.0000E+00    0.0000E+00    0.0000E+00  setid=       0
 node=    51 local x,y,z forces =   -3.6677E+04    7.4560E+03   -2.3970E+05  setid=       0
 node=    51 local x,y,z moments=    0.0000E+00    0.0000E+00    0.0000E+00  setid=       0
 node=    52 local x,y,z forces =   -2.0003E+04    7.3315E+03   -2.1780E+05  setid=       0
 node=    52 local x,y,z moments=    0.0000E+00    0.0000E+00    0.0000E+00  setid=       0
 node=    53 local x,y,z forces =   -1.1554E-02    7.3213E+03   -2.2598E+05  setid=       0
 node=    53 local x,y,z moments=    0.0000E+00    0.0000E+00    0.0000E+00  setid=       0
 node=    54 local x,y,z forces =    2.0003E+04    7.3315E+03   -2.1780E+05  setid=       0
 node=    54 local x,y,z moments=    0.0000E+00    0.0000E+00    0.0000E+00  setid=       0
 node=    55 local x,y,z forces =    3.6677E+04    7.4560E+03   -2.3970E+05  setid=       0
 node=    55 local x,y,z moments=    0.0000E+00    0.0000E+00    0.0000E+00  setid=       0
 node=    56 local x,y,z forces =    5.1979E+04    3.7901E+03   -1.5079E+05  setid=       0
 node=    56 local x,y,z moments=    0.0000E+00    0.0000E+00    0.0000E+00  setid=       0
 node=    57 local x,y,z forces =   -5.1860E+04    8.3930E+03   -1.5007E+05  setid=       0
 node=    57 local x,y,z moments=    0.0000E+00    0.0000E+00    0.0000E+00  setid=       0
 node=    58 local x,y,z forces =   -3.6476E+04    1.6576E+04   -2.3855E+05  setid=       0
 node=    58 local x,y,z moments=    0.0000E+00    0.0000E+00    0.0000E+00  setid=       0
 node=    59 local x,y,z forces =   -1.9804E+04    1.6409E+04   -2.1677E+05  setid=       0
 node=    59 local x,y,z moments=    0.0000E+00    0.0000E+00    0.0000E+00  setid=       0
 node=    60 local x,y,z forces =   -1.1438E-02    1.6427E+04   -2.2488E+05  setid=       0
 node=    60 local x,y,z moments=    0.0000E+00    0.0000E+00    0.0000E+00  setid=       0
 node=    61 local x,y,z forces =    1.9804E+04    1.6409E+04   -2.1678E+05  setid=       0
 node=    61 local x,y,z moments=    0.0000E+00    0.0000E+00    0.0000E+00  setid=       0
 node=    62 local x,y,z forces =    3.6476E+04    1.6576E+04   -2.3855E+05  setid=       0
 node=    62 local x,y,z moments=    0.0000E+00    0.0000E+00    0.0000E+00  setid=       0
 node=    63 local x,y,z forces =    5.1860E+04    8.3930E+03   -1.5007E+05  setid=       0
 node=    63 local x,y,z moments=    0.0000E+00    0.0000E+00    0.0000E+00  setid=       0
 node=    64 local x,y,z forces =   -5.1977E+04    1.2016E+04   -1.5214E+05  setid=       0
 node=    64 local x,y,z moments=    0.0000E+00    0.0000E+00    0.0000E+00  setid=       0
 node=    65 local x,y,z forces =   -3.6111E+04    2.3770E+04   -2.4325E+05  setid=       0
 node=    65 local x,y,z moments=    0.0000E+00    0.0000E+00    0.0000E+00  setid=       0
 node=    66 local x,y,z forces =   -1.9425E+04    2.3673E+04   -2.2174E+05  setid=       0
 node=    66 local x,y,z moments=    0.0000E+00    0.0000E+00    0.0000E+00  setid=       0
 node=    67 local x,y,z forces =   -1.1217E-02    2.3798E+04   -2.2969E+05  setid=       0
 node=    67 local x,y,z moments=    0.0000E+00    0.0000E+00    0.0000E+00  setid=       0
 node=    68 local x,y,z forces =    1.9425E+04    2.3673E+04   -2.2174E+05  setid=       0
 node=    68 local x,y,z moments=    0.0000E+00    0.0000E+00    0.0000E+00  setid=       0
 node=    69 local x,y,z forces =    3.6111E+04    2.3770E+04   -2.4325E+05  setid=       0
 node=    69 local x,y,z moments=    0.0000E+00    0.0000E+00    0.0000E+00  setid=       0
 node=    70 local x,y,z forces =    5.1977E+04    1.2016E+04   -1.5214E+05  setid=       0
 node=    70 local x,y,z moments=    0.0000E+00    0.0000E+00    0.0000E+00  setid=       0
 node=    71 local x,y,z forces =   -5.1822E+04    1.9997E+04   -1.5054E+05  setid=       0
 node=    71 local x,y,z moments=    0.0000E+00    0.0000E+00    0.0000E+00  setid=       0
 node=    72 local x,y,z forces =   -3.5578E+04    3.9972E+04   -2.4043E+05  setid=       0
 node=    72 local x,y,z moments=    0.0000E+00    0.0000E+00    0.0000E+00  setid=       0
 node=    73 local x,y,z forces =   -1.8868E+04    4.0417E+04   -2.1873E+05  setid=       0
 node=    73 local x,y,z moments=    0.0000E+00    0.0000E+00    0.0000E+00  setid=       0
 node=    74 local x,y,z forces =   -1.0877E-02    4.0823E+04   -2.2624E+05  setid=       0
 node=    74 local x,y,z moments=    0.0000E+00    0.0000E+00    0.0000E+00  setid=       0
 node=    75 local x,y,z forces =    1.8868E+04    4.0417E+04   -2.1873E+05  setid=       0
 node=    75 local x,y,z moments=    0.0000E+00    0.0000E+00    0.0000E+00  setid=       0
 node=    76 local x,y,z forces =    3.5578E+04    3.9972E+04   -2.4043E+05  setid=       0
 node=    76 local x,y,z moments=    0.0000E+00    0.0000E+00    0.0000E+00  setid=       0
 node=    77 local x,y,z forces =    5.1822E+04    1.9997E+04   -1.5054E+05  setid=       0
 node=    77 local x,y,z moments=    0.0000E+00    0.0000E+00    0.0000E+00  setid=       0
 node=    78 local x,y,z forces =   -5.4857E+04    2.2183E+04   -1.6825E+05  setid=       0
 node=    78 local x,y,z moments=    0.0000E+00    0.0000E+00    0.0000E+00  setid=       0
 node=    79 local x,y,z forces =   -3.5372E+04    4.4549E+04   -2.7641E+05  setid=       0
 node=    79 local x,y,z moments=    0.0000E+00    0.0000E+00    0.0000E+00  setid=       0
 node=    80 local x,y,z forces =   -1.8605E+04    4.5211E+04   -2.5516E+05  setid=       0
 node=    80 local x,y,z moments=    0.0000E+00    0.0000E+00    0.0000E+00  setid=       0
 node=    81 local x,y,z forces =   -1.0759E-02    4.5619E+04   -2.6247E+05  setid=       0
 node=    81 local x,y,z moments=    0.0000E+00    0.0000E+00    0.0000E+00  setid=       0
 node=    82 local x,y,z forces =    1.8605E+04    4.5212E+04   -2.5516E+05  setid=       0
 node=    82 local x,y,z moments=    0.0000E+00    0.0000E+00    0.0000E+00  setid=       0
 node=    83 local x,y,z forces =    3.5372E+04    4.4549E+04   -2.7641E+05  setid=       0
 node=    83 local x,y,z moments=    0.0000E+00    0.0000E+00    0.0000E+00  setid=       0
 node=    84 local x,y,z forces =    5.4857E+04    2.2183E+04   -1.6825E+05  setid=       0
 node=    84 local x,y,z moments=    0.0000E+00    0.0000E+00    0.0000E+00  setid=       0
 node=    85 local x,y,z forces =   -2.9469E+04    3.6971E+04   -1.0449E+05  setid=       0
 node=    85 local x,y,z moments=    0.0000E+00    0.0000E+00    0.0000E+00  setid=       0
 node=    86 local x,y,z forces =   -1.7794E+04    7.0347E+04   -1.7933E+05  setid=       0
 node=    86 local x,y,z moments=    0.0000E+00    0.0000E+00    0.0000E+00  setid=       0
 node=    87 local x,y,z forces =   -9.3434E+03    6.8254E+04   -1.6933E+05  setid=       0
 node=    87 local x,y,z moments=    0.0000E+00    0.0000E+00    0.0000E+00  setid=       0
 node=    88 local x,y,z forces =   -5.3969E-03    6.8962E+04   -1.7314E+05  setid=       0
 node=    88 local x,y,z moments=    0.0000E+00    0.0000E+00    0.0000E+00  setid=       0
 node=    89 local x,y,z forces =    9.3435E+03    6.8254E+04   -1.6933E+05  setid=       0
 node=    89 local x,y,z moments=    0.0000E+00    0.0000E+00    0.0000E+00  setid=       0
 node=    90 local x,y,z forces =    1.7794E+04    7.0347E+04   -1.7933E+05  setid=       0
 node=    90 local x,y,z moments=    0.0000E+00    0.0000E+00    0.0000E+00  setid=       0
 node=    91 local x,y,z forces =    2.9469E+04    3.6971E+04   -1.0449E+05  setid=       0
 node=    91 local x,y,z moments=    0.0000E+00    0.0000E+00    0.0000E+00  setid=       0
 node=  2276 local x,y,z forces =   -5.1044E+04    0.0000E+00    0.0000E+00  setid=       0
 node=  2282 local x,y,z forces =    5.1044E+04    0.0000E+00    0.0000E+00  setid=       0
 node=  2283 local x,y,z forces =   -1.0957E+05    0.0000E+00    0.0000E+00  setid=       0
 node=  2289 local x,y,z forces =    1.0957E+05    0.0000E+00    0.0000E+00  setid=       0
 node=  2290 local x,y,z forces =   -1.1378E+05    0.0000E+00    0.0000E+00  setid=       0
 node=  2296 local x,y,z forces =    1.1378E+05    0.0000E+00    0.0000E+00  setid=       0
 node=  2297 local x,y,z forces =   -1.1402E+05    0.0000E+00    0.0000E+00  setid=       0
 node=  2303 local x,y,z forces =    1.1402E+05    0.0000E+00    0.0000E+00  setid=       0
 node=  2304 local x,y,z forces =   -1.1449E+05    0.0000E+00    0.0000E+00  setid=       0
 node=  2310 local x,y,z forces =    1.1449E+05    0.0000E+00    0.0000E+00  setid=       0
 node=  2311 local x,y,z forces =   -1.1460E+05    0.0000E+00    0.0000E+00  setid=       0
 node=  2317 local x,y,z forces =    1.1460E+05    0.0000E+00    0.0000E+00  setid=       0
 node=  2318 local x,y,z forces =   -1.1468E+05    0.0000E+00    0.0000E+00  setid=       0
 node=  2324 local x,y,z forces =    1.1468E+05    0.0000E+00    0.0000E+00  setid=       0
 node=  2325 local x,y,z forces =   -1.1463E+05    0.0000E+00    0.0000E+00  setid=       0
 node=  2331 local x,y,z forces =    1.1463E+05    0.0000E+00    0.0000E+00  setid=       0
 node=  2332 local x,y,z forces =   -1.1457E+05    0.0000E+00    0.0000E+00  setid=       0
 node=  2338 local x,y,z forces =    1.1457E+05    0.0000E+00    0.0000E+00  setid=       0
 node=  2339 local x,y,z forces =   -1.1414E+05    0.0000E+00    0.0000E+00  setid=       0
 node=  2345 local x,y,z forces =    1.1414E+05    0.0000E+00    0.0000E+00  setid=       0
 node=  2346 local x,y,z forces =   -1.1393E+05    0.0000E+00    0.0000E+00  setid=       0
 node=  2352 local x,y,z forces =    1.1393E+05    0.0000E+00    0.0000E+00  setid=       0
 node=  2353 local x,y,z forces =   -1.0976E+05    0.0000E+00    0.0000E+00  setid=       0
 node=  2359 local x,y,z forces =    1.0976E+05    0.0000E+00    0.0000E+00  setid=       0
 node=  2360 local x,y,z forces =   -5.1145E+04    0.0000E+00    0.0000E+00  setid=       0
 node=  2366 local x,y,z forces =    5.1145E+04    0.0000E+00    0.0000E+00  setid=       0
             force resultants   =    2.2406E-06    2.9526E+02   -1.8482E+07
 output at time =   8.00000E-04
 node=     1 local x,y,z forces =   -3.9204E+04   -4.9224E+04   -1.3914E+05  setid=       0
 node=     1 local x,y,z moments=    0.0000E+00    0.0000E+00    0.0000E+00  setid=       0
 node=     2 local x,y,z forces =   -2.3662E+04   -9.3649E+04   -2.3875E+05  setid=       0
 node=     2 local x,y,z moments=    0.0000E+00    0.0000E+00    0.0000E+00  setid=       0
 node=     3 local x,y,z forces =   -1.2430E+04   -9.0849E+04   -2.2540E+05  setid=       0
 node=     3 local x,y,z moments=    0.0000E+00    0.0000E+00    0.0000E+00  setid=       0
 node=     4 local x,y,z forces =   -7.1794E-03   -9.1790E+04   -2.3047E+05  setid=       0
 node=     4 local x,y,z moments=    0.0000E+00    0.0000E+00    0.0000E+00  setid=       0
 node=     5 local x,y,z forces =    1.2430E+04   -9.0849E+04   -2.2540E+05  setid=       0
 node=     5 local x,y,z moments=    0.0000E+00    0.0000E+00    0.0000E+00  setid=       0
 node=     6 local x,y,z forces =    2.3662E+04   -9.3650E+04   -2.3875E+05  setid=       0
 node=     6 local x,y,z moments=    0.0000E+00    0.0000E+00    0.0000E+00  setid=       0
 node=     7 local x,y,z forces =    3.9204E+04   -4.9223E+04   -1.3914E+05  setid=       0
 node=     7 local x,y,z moments=    0.0000E+00    0.0000E+00    0.0000E+00  setid=       0
 node=     8 local x,y,z forces =   -7.3007E+04   -2.9595E+04   -2.2409E+05  setid=       0
 node=     8 local x,y,z moments=    0.0000E+00    0.0000E+00    0.0000E+00  setid=       0
 node=     9 local x,y,z forces =   -4.7069E+04   -5.9420E+04   -3.6807E+05  setid=       0
 node=     9 local x,y,z moments=    0.0000E+00    0.0000E+00    0.0000E+00  setid=       0
[...]
 node=  2352 local x,y,z forces =    3.4022E+06    0.0000E+00    0.0000E+00  setid=       0
 node=  2353 local x,y,z forces =   -3.9833E+06    0.0000E+00    0.0000E+00  setid=       0
 node=  2359 local x,y,z forces =    3.9833E+06    0.0000E+00    0.0000E+00  setid=       0
 node=  2360 local x,y,z forces =   -2.0878E+06    0.0000E+00    0.0000E+00  setid=       0
 node=  2366 local x,y,z forces =    2.0878E+06    0.0000E+00    0.0000E+00  setid=       0
             force resultants   =    1.8576E-02   -1.1041E+07   -1.1755E+08
 output at time =   2.00000E-02
 node=     1 local x,y,z forces =   -1.2184E+06   -1.2282E+06   -4.5514E+06  setid=       0
 node=     1 local x,y,z moments=    0.0000E+00    0.0000E+00    0.0000E+00  setid=       0
 node=     2 local x,y,z forces =   -7.9119E+05   -2.4067E+06   -7.7164E+06  setid=       0
 node=     2 local x,y,z moments=    0.0000E+00    0.0000E+00    0.0000E+00  setid=       0
 node=     3 local x,y,z forces =   -4.4907E+05   -2.4243E+06   -7.3775E+06  setid=       0
 node=     3 local x,y,z moments=    0.0000E+00    0.0000E+00    0.0000E+00  setid=       0
 node=     4 local x,y,z forces =   -2.6079E-01   -2.4740E+06   -7.6395E+06  setid=       0
 node=     4 local x,y,z moments=    0.0000E+00    0.0000E+00    0.0000E+00  setid=       0
 node=     5 local x,y,z forces =    4.4907E+05   -2.4243E+06   -7.3775E+06  setid=       0
 node=     5 local x,y,z moments=    0.0000E+00    0.0000E+00    0.0000E+00  setid=       0
 node=     6 local x,y,z forces =    7.9119E+05   -2.4067E+06   -7.7164E+06  setid=       0
 node=     6 local x,y,z moments=    0.0000E+00    0.0000E+00    0.0000E+00  setid=       0
 node=     7 local x,y,z forces =    1.2184E+06   -1.2282E+06   -4.5514E+06  setid=       0
 node=     7 local x,y,z moments=    0.0000E+00    0.0000E+00    0.0000E+00  setid=       0
 node=     8 local x,y,z forces =   -2.1455E+06   -1.9402E+05   -7.0775E+06  setid=       0
 node=     8 local x,y,z moments=    0.0000E+00    0.0000E+00    0.0000E+00  setid=       0
 node=     9 local x,y,z forces =   -1.4166E+06   -6.3558E+05   -1.1448E+07  setid=       0
 node=     9 local x,y,z moments=    0.0000E+00    0.0000E+00    0.0000E+00  setid=       0
 node=    10 local x,y,z forces =   -8.0333E+05   -8.4974E+05   -1.0586E+07  setid=       0
 node=    10 local x,y,z moments=    0.0000E+00    0.0000E+00    0.0000E+00  setid=       0
 node=    11 local x,y,z forces =   -4.6262E-01   -8.6451E+05   -1.0979E+07  setid=       0
 node=    11 local x,y,z moments=    0.0000E+00    0.0000E+00    0.0000E+00  setid=       0
 node=    12 local x,y,z forces =    8.0333E+05   -8.4974E+05   -1.0586E+07  setid=       0
 node=    12 local x,y,z moments=    0.0000E+00    0.0000E+00    0.0000E+00  setid=       0
 node=    13 local x,y,z forces =    1.4166E+06   -6.3558E+05   -1.1448E+07  setid=       0
 node=    13 local x,y,z moments=    0.0000E+00    0.0000E+00    0.0000E+00  setid=       0
 node=    14 local x,y,z forces =    2.1455E+06   -1.9402E+05   -7.0774E+06  setid=       0
 node=    14 local x,y,z moments=    0.0000E+00    0.0000E+00    0.0000E+00  setid=       0
 node=    15 local x,y,z forces =   -1.7479E+06    6.2902E+04   -5.4900E+06  setid=       0
 node=    15 local x,y,z moments=    0.0000E+00    0.0000E+00    0.0000E+00  setid=       0
 node=    16 local x,y,z forces =   -1.1873E+06   -1.7563E+05   -8.6518E+06  setid=       0
 node=    16 local x,y,z moments=    0.0000E+00    0.0000E+00    0.0000E+00  setid=       0
 node=    17 local x,y,z forces =   -6.5743E+05   -4.6486E+05   -7.8227E+06  setid=       0
 node=    17 local x,y,z moments=    0.0000E+00    0.0000E+00    0.0000E+00  setid=       0
 node=    18 local x,y,z forces =   -3.7572E-01   -5.0115E+05   -8.1138E+06  setid=       0
 node=    18 local x,y,z moments=    0.0000E+00    0.0000E+00    0.0000E+00  setid=       0
 node=    19 local x,y,z forces =    6.5743E+05   -4.6486E+05   -7.8227E+06  setid=       0
 node=    19 local x,y,z moments=    0.0000E+00    0.0000E+00    0.0000E+00  setid=       0
 node=    20 local x,y,z forces =    1.1873E+06   -1.7563E+05   -8.6518E+06  setid=       0
 node=    20 local x,y,z moments=    0.0000E+00    0.0000E+00    0.0000E+00  setid=       0
 node=    21 local x,y,z forces =    1.7479E+06    6.2902E+04   -5.4900E+06  setid=       0
 node=    21 local x,y,z moments=    0.0000E+00    0.0000E+00    0.0000E+00  setid=       0
 node=    22 local x,y,z forces =   -1.4088E+06    3.9143E+05   -4.3705E+06  setid=       0
 node=    22 local x,y,z moments=    0.0000E+00    0.0000E+00    0.0000E+00  setid=       0
 node=    23 local x,y,z forces =   -9.6932E+05    5.1034E+05   -6.9199E+06  setid=       0
 node=    23 local x,y,z moments=    0.0000E+00    0.0000E+00    0.0000E+00  setid=       0
 node=    24 local x,y,z forces =   -5.3422E+05    2.4576E+05   -6.2889E+06  setid=       0
 node=    24 local x,y,z moments=    0.0000E+00    0.0000E+00    0.0000E+00  setid=       0
 node=    25 local x,y,z forces =   -3.0652E-01    2.1615E+05   -6.5265E+06  setid=       0
 node=    25 local x,y,z moments=    0.0000E+00    0.0000E+00    0.0000E+00  setid=       0
 node=    26 local x,y,z forces =    5.3422E+05    2.4576E+05   -6.2889E+06  setid=       0
 node=    26 local x,y,z moments=    0.0000E+00    0.0000E+00    0.0000E+00  setid=       0
 node=    27 local x,y,z forces =    9.6932E+05    5.1034E+05   -6.9199E+06  setid=       0
 node=    27 local x,y,z moments=    0.0000E+00    0.0000E+00    0.0000E+00  setid=       0
 node=    28 local x,y,z forces =    1.4088E+06    3.9143E+05   -4.3705E+06  setid=       0
 node=    28 local x,y,z moments=    0.0000E+00    0.0000E+00    0.0000E+00  setid=       0
 node=    29 local x,y,z forces =   -1.0437E+06    4.7520E+05   -3.1456E+06  setid=       0
 node=    29 local x,y,z moments=    0.0000E+00    0.0000E+00    0.0000E+00  setid=       0
 node=    30 local x,y,z forces =   -7.2846E+05    6.8035E+05   -4.9526E+06  setid=       0
 node=    30 local x,y,z moments=    0.0000E+00    0.0000E+00    0.0000E+00  setid=       0
 node=    31 local x,y,z forces =   -4.0400E+05    4.1274E+05   -4.4827E+06  setid=       0
 node=    31 local x,y,z moments=    0.0000E+00    0.0000E+00    0.0000E+00  setid=       0
 node=    32 local x,y,z forces =   -2.3164E-01    3.8216E+05   -4.6585E+06  setid=       0
 node=    32 local x,y,z moments=    0.0000E+00    0.0000E+00    0.0000E+00  setid=       0
 node=    33 local x,y,z forces =    4.0400E+05    4.1274E+05   -4.4827E+06  setid=       0
 node=    33 local x,y,z moments=    0.0000E+00    0.0000E+00    0.0000E+00  setid=       0
 node=    34 local x,y,z forces =    7.2846E+05    6.8035E+05   -4.9526E+06  setid=       0
 node=    34 local x,y,z moments=    0.0000E+00    0.0000E+00    0.0000E+00  setid=       0
 node=    35 local x,y,z forces =    1.0437E+06    4.7520E+05   -3.1455E+06  setid=       0
 node=    35 local x,y,z moments=    0.0000E+00    0.0000E+00    0.0000E+00  setid=       0
 node=    36 local x,y,z forces =   -6.7865E+05    5.6152E+05   -2.0132E+06  setid=       0
 node=    36 local x,y,z moments=    0.0000E+00    0.0000E+00    0.0000E+00  setid=       0
 node=    37 local x,y,z forces =   -4.7645E+05    8.6570E+05   -3.1702E+06  setid=       0
 node=    37 local x,y,z moments=    0.0000E+00    0.0000E+00    0.0000E+00  setid=       0
 node=    38 local x,y,z forces =   -2.6566E+05    6.0529E+05   -2.8687E+06  setid=       0
 node=    38 local x,y,z moments=    0.0000E+00    0.0000E+00    0.0000E+00  setid=       0
 node=    39 local x,y,z forces =   -1.5227E-01    5.7302E+05   -2.9824E+06  setid=       0
 node=    39 local x,y,z moments=    0.0000E+00    0.0000E+00    0.0000E+00  setid=       0
 node=    40 local x,y,z forces =    2.6566E+05    6.0529E+05   -2.8687E+06  setid=       0
 node=    40 local x,y,z moments=    0.0000E+00    0.0000E+00    0.0000E+00  setid=       0
 node=    41 local x,y,z forces =    4.7645E+05    8.6570E+05   -3.1702E+06  setid=       0
 node=    41 local x,y,z moments=    0.0000E+00    0.0000E+00    0.0000E+00  setid=       0
 node=    42 local x,y,z forces =    6.7865E+05    5.6151E+05   -2.0132E+06  setid=       0
 node=    42 local x,y,z moments=    0.0000E+00    0.0000E+00    0.0000E+00  setid=       0
 node=    43 local x,y,z forces =   -3.0535E+05    5.5780E+05   -8.8057E+05  setid=       0
 node=    43 local x,y,z moments=    0.0000E+00    0.0000E+00    0.0000E+00  setid=       0
 node=    44 local x,y,z forces =   -2.1697E+05    8.6715E+05   -1.3681E+06  setid=       0
 node=    44 local x,y,z moments=    0.0000E+00    0.0000E+00    0.0000E+00  setid=       0
 node=    45 local x,y,z forces =   -1.2354E+05    6.0901E+05   -1.2245E+06  setid=       0
 node=    45 local x,y,z moments=    0.0000E+00    0.0000E+00    0.0000E+00  setid=       0
 node=    46 local x,y,z forces =   -7.0492E-02    5.7261E+05   -1.2762E+06  setid=       0
 node=    46 local x,y,z moments=    0.0000E+00    0.0000E+00    0.0000E+00  setid=       0
 node=    47 local x,y,z forces =    1.2354E+05    6.0901E+05   -1.2245E+06  setid=       0
 node=    47 local x,y,z moments=    0.0000E+00    0.0000E+00    0.0000E+00  setid=       0
 node=    48 local x,y,z forces =    2.1697E+05    8.6715E+05   -1.3681E+06  setid=       0
 node=    48 local x,y,z moments=    0.0000E+00    0.0000E+00    0.0000E+00  setid=       0
 node=    49 local x,y,z forces =    3.0535E+05    5.5780E+05   -8.8057E+05  setid=       0
 node=    49 local x,y,z moments=    0.0000E+00    0.0000E+00    0.0000E+00  setid=       0
 node=    50 local x,y,z forces =    7.0989E+04    5.3803E+05    2.2424E+05  setid=       0
 node=    50 local x,y,z moments=    0.0000E+00    0.0000E+00    0.0000E+00  setid=       0
 node=    51 local x,y,z forces =    4.6044E+04    8.4063E+05    3.9792E+05  setid=       0
 node=    51 local x,y,z moments=    0.0000E+00    0.0000E+00    0.0000E+00  setid=       0
 node=    52 local x,y,z forces =    1.9229E+04    5.9025E+05    3.9047E+05  setid=       0
 node=    52 local x,y,z moments=    0.0000E+00    0.0000E+00    0.0000E+00  setid=       0
 node=    53 local x,y,z forces =    1.1800E-02    5.5046E+05    3.9878E+05  setid=       0
 node=    53 local x,y,z moments=    0.0000E+00    0.0000E+00    0.0000E+00  setid=       0
 node=    54 local x,y,z forces =   -1.9230E+04    5.9025E+05    3.9047E+05  setid=       0
 node=    54 local x,y,z moments=    0.0000E+00    0.0000E+00    0.0000E+00  setid=       0
 node=    55 local x,y,z forces =   -4.6044E+04    8.4063E+05    3.9792E+05  setid=       0
 node=    55 local x,y,z moments=    0.0000E+00    0.0000E+00    0.0000E+00  setid=       0
 node=    56 local x,y,z forces =   -7.0989E+04    5.3803E+05    2.2424E+05  setid=       0
 node=    56 local x,y,z moments=    0.0000E+00    0.0000E+00    0.0000E+00  setid=       0
 node=    57 local x,y,z forces =    4.4916E+05    4.4893E+05    1.2910E+06  setid=       0
 node=    57 local x,y,z moments=    0.0000E+00    0.0000E+00    0.0000E+00  setid=       0
 node=    58 local x,y,z forces =    3.0818E+05    6.7395E+05    2.1095E+06  setid=       0
 node=    58 local x,y,z moments=    0.0000E+00    0.0000E+00    0.0000E+00  setid=       0
 node=    59 local x,y,z forces =    1.5937E+05    4.2821E+05    1.9567E+06  setid=       0
 node=    59 local x,y,z moments=    0.0000E+00    0.0000E+00    0.0000E+00  setid=       0
 node=    60 local x,y,z forces =    9.2889E-02    3.8358E+05    2.0207E+06  setid=       0
 node=    60 local x,y,z moments=    0.0000E+00    0.0000E+00    0.0000E+00  setid=       0
 node=    61 local x,y,z forces =   -1.5937E+05    4.2821E+05    1.9567E+06  setid=       0
 node=    61 local x,y,z moments=    0.0000E+00    0.0000E+00    0.0000E+00  setid=       0
 node=    62 local x,y,z forces =   -3.0818E+05    6.7395E+05    2.1095E+06  setid=       0
 node=    62 local x,y,z moments=    0.0000E+00    0.0000E+00    0.0000E+00  setid=       0
 node=    63 local x,y,z forces =   -4.4916E+05    4.4893E+05    1.2910E+06  setid=       0
 node=    63 local x,y,z moments=    0.0000E+00    0.0000E+00    0.0000E+00  setid=       0
 node=    64 local x,y,z forces =    8.3211E+05    3.3835E+05    2.3835E+06  setid=       0
 node=    64 local x,y,z moments=    0.0000E+00    0.0000E+00    0.0000E+00  setid=       0
 node=    65 local x,y,z forces =    5.6759E+05    4.7070E+05    3.9081E+06  setid=       0
 node=    65 local x,y,z moments=    0.0000E+00    0.0000E+00    0.0000E+00  setid=       0
 node=    66 local x,y,z forces =    2.9411E+05    2.3594E+05    3.6304E+06  setid=       0
 node=    66 local x,y,z moments=    0.0000E+00    0.0000E+00    0.0000E+00  setid=       0
 node=    67 local x,y,z forces =    1.7098E-01    1.8574E+05    3.7477E+06  setid=       0
 node=    67 local x,y,z moments=    0.0000E+00    0.0000E+00    0.0000E+00  setid=       0
 node=    68 local x,y,z forces =   -2.9411E+05    2.3594E+05    3.6304E+06  setid=       0
 node=    68 local x,y,z moments=    0.0000E+00    0.0000E+00    0.0000E+00  setid=       0
 node=    69 local x,y,z forces =   -5.6759E+05    4.7070E+05    3.9081E+06  setid=       0
 node=    69 local x,y,z moments=    0.0000E+00    0.0000E+00    0.0000E+00  setid=       0
 node=    70 local x,y,z forces =   -8.3211E+05    3.3835E+05    2.3835E+06  setid=       0
 node=    70 local x,y,z moments=    0.0000E+00    0.0000E+00    0.0000E+00  setid=       0
 node=    71 local x,y,z forces =    1.2040E+06    8.6277E+04    3.3531E+06  setid=       0
 node=    71 local x,y,z moments=    0.0000E+00    0.0000E+00    0.0000E+00  setid=       0
 node=    72 local x,y,z forces =    8.1262E+05   -2.4619E+04    5.4800E+06  setid=       0
 node=    72 local x,y,z moments=    0.0000E+00    0.0000E+00    0.0000E+00  setid=       0
 node=    73 local x,y,z forces =    4.2226E+05   -2.6419E+05    5.0659E+06  setid=       0
 node=    73 local x,y,z moments=    0.0000E+00    0.0000E+00    0.0000E+00  setid=       0
 node=    74 local x,y,z forces =    2.4537E-01   -3.2342E+05    5.2251E+06  setid=       0
 node=    74 local x,y,z moments=    0.0000E+00    0.0000E+00    0.0000E+00  setid=       0
 node=    75 local x,y,z forces =   -4.2226E+05   -2.6419E+05    5.0659E+06  setid=       0
 node=    75 local x,y,z moments=    0.0000E+00    0.0000E+00    0.0000E+00  setid=       0
 node=    76 local x,y,z forces =   -8.1262E+05   -2.4619E+04    5.4800E+06  setid=       0
 node=    76 local x,y,z moments=    0.0000E+00    0.0000E+00    0.0000E+00  setid=       0
 node=    77 local x,y,z forces =   -1.2040E+06    8.6277E+04    3.3531E+06  setid=       0
 node=    77 local x,y,z moments=    0.0000E+00    0.0000E+00    0.0000E+00  setid=       0
 node=    78 local x,y,z forces =    1.6172E+06   -2.0394E+05    4.6034E+06  setid=       0
 node=    78 local x,y,z moments=    0.0000E+00    0.0000E+00    0.0000E+00  setid=       0
 node=    79 local x,y,z forces =    1.0689E+06   -5.5459E+05    7.7320E+06  setid=       0
 node=    79 local x,y,z moments=    0.0000E+00    0.0000E+00    0.0000E+00  setid=       0
 node=    80 local x,y,z forces =    5.6382E+05   -7.4359E+05    7.3266E+06  setid=       0
 node=    80 local x,y,z moments=    0.0000E+00    0.0000E+00    0.0000E+00  setid=       0
 node=    81 local x,y,z forces =    3.2929E-01   -7.9165E+05    7.5755E+06  setid=       0
 node=    81 local x,y,z moments=    0.0000E+00    0.0000E+00    0.0000E+00  setid=       0
 node=    82 local x,y,z forces =   -5.6382E+05   -7.4359E+05    7.3266E+06  setid=       0
 node=    82 local x,y,z moments=    0.0000E+00    0.0000E+00    0.0000E+00  setid=       0
 node=    83 local x,y,z forces =   -1.0689E+06   -5.5459E+05    7.7320E+06  setid=       0
 node=    83 local x,y,z moments=    0.0000E+00    0.0000E+00    0.0000E+00  setid=       0
 node=    84 local x,y,z forces =   -1.6172E+06   -2.0394E+05    4.6034E+06  setid=       0
 node=    84 local x,y,z moments=    0.0000E+00    0.0000E+00    0.0000E+00  setid=       0
 node=    85 local x,y,z forces =    9.3162E+05   -9.7342E+05    2.8811E+06  setid=       0
 node=    85 local x,y,z moments=    0.0000E+00    0.0000E+00    0.0000E+00  setid=       0
 node=    86 local x,y,z forces =    6.0091E+05   -1.9076E+06    5.0331E+06  setid=       0
 node=    86 local x,y,z moments=    0.0000E+00    0.0000E+00    0.0000E+00  setid=       0
 node=    87 local x,y,z forces =    3.2159E+05   -1.9526E+06    4.9184E+06  setid=       0
 node=    87 local x,y,z moments=    0.0000E+00    0.0000E+00    0.0000E+00  setid=       0
 node=    88 local x,y,z forces =    1.8621E-01   -2.0109E+06    5.0827E+06  setid=       0
 node=    88 local x,y,z moments=    0.0000E+00    0.0000E+00    0.0000E+00  setid=       0
 node=    89 local x,y,z forces =   -3.2159E+05   -1.9526E+06    4.9184E+06  setid=       0
 node=    89 local x,y,z moments=    0.0000E+00    0.0000E+00    0.0000E+00  setid=       0
 node=    90 local x,y,z forces =   -6.0091E+05   -1.9076E+06    5.0331E+06  setid=       0
 node=    90 local x,y,z moments=    0.0000E+00    0.0000E+00    0.0000E+00  setid=       0
 node=    91 local x,y,z forces =   -9.3162E+05   -9.7342E+05    2.8811E+06  setid=       0
 node=    91 local x,y,z moments=    0.0000E+00    0.0000E+00    0.0000E+00  setid=       0
 node=  2276 local x,y,z forces =    1.5190E+06    0.0000E+00    0.0000E+00  setid=       0
 node=  2282 local x,y,z forces =   -1.5190E+06    0.0000E+00    0.0000E+00  setid=       0
 node=  2283 local x,y,z forces =    2.7796E+06    0.0000E+00    0.0000E+00  setid=       0
 node=  2289 local x,y,z forces =   -2.7796E+06    0.0000E+00    0.0000E+00  setid=       0
 node=  2290 local x,y,z forces =    2.1066E+06    0.0000E+00    0.0000E+00  setid=       0
 node=  2296 local x,y,z forces =   -2.1066E+06    0.0000E+00    0.0000E+00  setid=       0
 node=  2297 local x,y,z forces =    1.3734E+06    0.0000E+00    0.0000E+00  setid=       0
 node=  2303 local x,y,z forces =   -1.3734E+06    0.0000E+00    0.0000E+00  setid=       0
 node=  2304 local x,y,z forces =    6.6525E+05    0.0000E+00    0.0000E+00  setid=       0
 node=  2310 local x,y,z forces =   -6.6525E+05    0.0000E+00    0.0000E+00  setid=       0
 node=  2311 local x,y,z forces =   -3.6629E+04    0.0000E+00    0.0000E+00  setid=       0
 node=  2317 local x,y,z forces =    3.6629E+04    0.0000E+00    0.0000E+00  setid=       0
 node=  2318 local x,y,z forces =   -7.2742E+05    0.0000E+00    0.0000E+00  setid=       0
 node=  2324 local x,y,z forces =    7.2742E+05    0.0000E+00    0.0000E+00  setid=       0
 node=  2325 local x,y,z forces =   -1.4090E+06    0.0000E+00    0.0000E+00  setid=       0
 node=  2331 local x,y,z forces =    1.4090E+06    0.0000E+00    0.0000E+00  setid=       0
 node=  2332 local x,y,z forces =   -2.0837E+06    0.0000E+00    0.0000E+00  setid=       0
 node=  2338 local x,y,z forces =    2.0837E+06    0.0000E+00    0.0000E+00  setid=       0
 node=  2339 local x,y,z forces =   -2.7457E+06    0.0000E+00    0.0000E+00  setid=       0
 node=  2345 local x,y,z forces =    2.7457E+06    0.0000E+00    0.0000E+00  setid=       0
 node=  2346 local x,y,z forces =   -3.4186E+06    0.0000E+00    0.0000E+00  setid=       0
 node=  2352 local x,y,z forces =    3.4186E+06    0.0000E+00    0.0000E+00  setid=       0
 node=  2353 local x,y,z forces =   -4.0034E+06    0.0000E+00    0.0000E+00  setid=       0
 node=  2359 local x,y,z forces =    4.0034E+06    0.0000E+00    0.0000E+00  setid=       0
 node=  2360 local x,y,z forces =   -2.0987E+06    0.0000E+00    0.0000E+00  setid=       0
 node=  2366 local x,y,z forces =    2.0987E+06    0.0000E+00    0.0000E+00  setid=       0
             force resultants   =    2.1460E-02   -1.1116E+07   -1.1757E+08
