 400x600                                                                 
                         ls-dyna smp.123264 d           date 01/12/2018

{BEGIN LEGEND}
 Entity #        Title
        0     bottom                                                                
        0     top                                                                   
        0     middle                                                                
{END LEGEND}

 single point constraint forces

 output at time =   0.00000E+00
 node=     1 local x,y,z forces =    0.0000E+00    0.0000E+00    0.0000E+00  setid=       0
 node=     2 local x,y,z forces =    0.0000E+00    0.0000E+00    0.0000E+00  setid=       0
 node=     3 local x,y,z forces =    0.0000E+00    0.0000E+00    0.0000E+00  setid=       0
 node=     4 local x,y,z forces =    0.0000E+00    0.0000E+00    0.0000E+00  setid=       0
 node=     5 local x,y,z forces =    0.0000E+00    0.0000E+00    0.0000E+00  setid=       0
 node=     6 local x,y,z forces =    0.0000E+00    0.0000E+00    0.0000E+00  setid=       0
 node=     7 local x,y,z forces =    0.0000E+00    0.0000E+00    0.0000E+00  setid=       0
 node=     8 local x,y,z forces =    0.0000E+00    0.0000E+00    0.0000E+00  setid=       0
 node=     9 local x,y,z forces =    0.0000E+00    0.0000E+00    0.0000E+00  setid=       0
 node=    10 local x,y,z forces =    0.0000E+00    0.0000E+00    0.0000E+00  setid=       0
 node=    11 local x,y,z forces =    0.0000E+00    0.0000E+00    0.0000E+00  setid=       0
 node=    12 local x,y,z forces =    0.0000E+00    0.0000E+00    0.0000E+00  setid=       0
 node=    13 local x,y,z forces =    0.0000E+00    0.0000E+00    0.0000E+00  setid=       0
 node=    14 local x,y,z forces =    0.0000E+00    0.0000E+00    0.0000E+00  setid=       0
 node=    15 local x,y,z forces =    0.0000E+00    0.0000E+00    0.0000E+00  setid=       0
 node=    16 local x,y,z forces =    0.0000E+00    0.0000E+00    0.0000E+00  setid=       0
 node=    17 local x,y,z forces =    0.0000E+00    0.0000E+00    0.0000E+00  setid=       0
 node=    18 local x,y,z forces =    0.0000E+00    0.0000E+00    0.0000E+00  setid=       0
 node=    19 local x,y,z forces =    0.0000E+00    0.0000E+00    0.0000E+00  setid=       0
 node=    20 local x,y,z forces =    0.0000E+00    0.0000E+00    0.0000E+00  setid=       0
 node=    21 local x,y,z forces =    0.0000E+00    0.0000E+00    0.0000E+00  setid=       0
 node=    22 local x,y,z forces =    0.0000E+00    0.0000E+00    0.0000E+00  setid=       0
 node=    23 local x,y,z forces =    0.0000E+00    0.0000E+00    0.0000E+00  setid=       0
 node=    24 local x,y,z forces =    0.0000E+00    0.0000E+00    0.0000E+00  setid=       0
 node=    25 local x,y,z forces =    0.0000E+00    0.0000E+00    0.0000E+00  setid=       0
 node=    26 local x,y,z forces =    0.0000E+00    0.0000E+00    0.0000E+00  setid=       0
 node=    27 local x,y,z forces =    0.0000E+00    0.0000E+00    0.0000E+00  setid=       0
 node=    28 local x,y,z forces =    0.0000E+00    0.0000E+00    0.0000E+00  setid=       0
 node=    29 local x,y,z forces =    0.0000E+00    0.0000E+00    0.0000E+00  setid=       0
 node=    30 local x,y,z forces =    0.0000E+00    0.0000E+00    0.0000E+00  setid=       0
 node=    31 local x,y,z forces =    0.0000E+00    0.0000E+00    0.0000E+00  setid=       0
 node=    32 local x,y,z forces =    0.0000E+00    0.0000E+00    0.0000E+00  setid=       0
 node=    33 local x,y,z forces =    0.0000E+00    0.0000E+00    0.0000E+00  setid=       0
 node=    34 local x,y,z forces =    0.0000E+00    0.0000E+00    0.0000E+00  setid=       0
 node=    35 local x,y,z forces =    0.0000E+00    0.0000E+00    0.0000E+00  setid=       0
 node=    36 local x,y,z forces =    0.0000E+00    0.0000E+00    0.0000E+00  setid=       0
 node=    37 local x,y,z forces =    0.0000E+00    0.0000E+00    0.0000E+00  setid=       0
 node=    38 local x,y,z forces =    0.0000E+00    0.0000E+00    0.0000E+00  setid=       0
 node=    39 local x,y,z forces =    0.0000E+00    0.0000E+00    0.0000E+00  setid=       0
 node=    40 local x,y,z forces =    0.0000E+00    0.0000E+00    0.0000E+00  setid=       0
 node=    41 local x,y,z forces =    0.0000E+00    0.0000E+00    0.0000E+00  setid=       0
 node=    42 local x,y,z forces =    0.0000E+00    0.0000E+00    0.0000E+00  setid=       0
 node=    43 local x,y,z forces =    0.0000E+00    0.0000E+00    0.0000E+00  setid=       0
 node=    44 local x,y,z forces =    0.0000E+00    0.0000E+00    0.0000E+00  setid=       0
 node=    45 local x,y,z forces =    0.0000E+00    0.0000E+00    0.0000E+00  setid=       0
 node=    46 local x,y,z forces =    0.0000E+00    0.0000E+00    0.0000E+00  setid=       0
 node=    47 local x,y,z forces =    0.0000E+00    0.0000E+00    0.0000E+00  setid=       0
 node=    48 local x,y,z forces =    0.0000E+00    0.0000E+00    0.0000E+00  setid=       0
 node=    49 local x,y,z forces =    0.0000E+00    0.0000E+00    0.0000E+00  setid=       0
 node=    50 local x,y,z forces =    0.0000E+00    0.0000E+00    0.0000E+00  setid=       0
 node=    51 local x,y,z forces =    0.0000E+00    0.0000E+00    0.0000E+00  setid=       0
 node=    52 local x,y,z forces =    0.0000E+00    0.0000E+00    0.0000E+00  setid=       0
 node=    53 local x,y,z forces =    0.0000E+00    0.0000E+00    0.0000E+00  setid=       0
 node=    54 local x,y,z forces =    0.0000E+00    0.0000E+00    0.0000E+00  setid=       0
 node=    55 local x,y,z forces =    0.0000E+00    0.0000E+00    0.0000E+00  setid=       0
 node=    56 local x,y,z forces =    0.0000E+00    0.0000E+00    0.0000E+00  setid=       0
 node=    57 local x,y,z forces =    0.0000E+00    0.0000E+00    0.0000E+00  setid=       0
 node=    58 local x,y,z forces =    0.0000E+00    0.0000E+00    0.0000E+00  setid=       0
 node=    59 local x,y,z forces =    0.0000E+00    0.0000E+00    0.0000E+00  setid=       0
 node=    60 local x,y,z forces =    0.0000E+00    0.0000E+00    0.0000E+00  setid=       0
 node=    61 local x,y,z forces =    0.0000E+00    0.0000E+00    0.0000E+00  setid=       0
 node=    62 local x,y,z forces =    0.0000E+00    0.0000E+00    0.0000E+00  setid=       0
 node=    63 local x,y,z forces =    0.0000E+00    0.0000E+00    0.0000E+00  setid=       0
 node=    64 local x,y,z forces =    0.0000E+00    0.0000E+00    0.0000E+00  setid=       0
 node=    65 local x,y,z forces =    0.0000E+00    0.0000E+00    0.0000E+00  setid=       0
 node=    66 local x,y,z forces =    0.0000E+00    0.0000E+00    0.0000E+00  setid=       0
 node=    67 local x,y,z forces =    0.0000E+00    0.0000E+00    0.0000E+00  setid=       0
 node=    68 local x,y,z forces =    0.0000E+00    0.0000E+00    0.0000E+00  setid=       0
 node=    69 local x,y,z forces =    0.0000E+00    0.0000E+00    0.0000E+00  setid=       0
 node=    70 local x,y,z forces =    0.0000E+00    0.0000E+00    0.0000E+00  setid=       0
 node=    71 local x,y,z forces =    0.0000E+00    0.0000E+00    0.0000E+00  setid=       0
 node=    72 local x,y,z forces =    0.0000E+00    0.0000E+00    0.0000E+00  setid=       0
 node=    73 local x,y,z forces =    0.0000E+00    0.0000E+00    0.0000E+00  setid=       0
 node=    74 local x,y,z forces =    0.0000E+00    0.0000E+00    0.0000E+00  setid=       0
 node=    75 local x,y,z forces =    0.0000E+00    0.0000E+00    0.0000E+00  setid=       0
 node=    76 local x,y,z forces =    0.0000E+00    0.0000E+00    0.0000E+00  setid=       0
 node=    77 local x,y,z forces =    0.0000E+00    0.0000E+00    0.0000E+00  setid=       0
 node=    78 local x,y,z forces =    0.0000E+00    0.0000E+00    0.0000E+00  setid=       0
 node=    79 local x,y,z forces =    0.0000E+00    0.0000E+00    0.0000E+00  setid=       0
 node=    80 local x,y,z forces =    0.0000E+00    0.0000E+00    0.0000E+00  setid=       0
 node=    81 local x,y,z forces =    0.0000E+00    0.0000E+00    0.0000E+00  setid=       0
 node=    82 local x,y,z forces =    0.0000E+00    0.0000E+00    0.0000E+00  setid=       0
 node=    83 local x,y,z forces =    0.0000E+00    0.0000E+00    0.0000E+00  setid=       0
 node=    84 local x,y,z forces =    0.0000E+00    0.0000E+00    0.0000E+00  setid=       0
 node=    85 local x,y,z forces =    0.0000E+00    0.0000E+00    0.0000E+00  setid=       0
 node=    86 local x,y,z forces =    0.0000E+00    0.0000E+00    0.0000E+00  setid=       0
 node=    87 local x,y,z forces =    0.0000E+00    0.0000E+00    0.0000E+00  setid=       0
 node=    88 local x,y,z forces =    0.0000E+00    0.0000E+00    0.0000E+00  setid=       0
 node=    89 local x,y,z forces =    0.0000E+00    0.0000E+00    0.0000E+00  setid=       0
 node=    90 local x,y,z forces =    0.0000E+00    0.0000E+00    0.0000E+00  setid=       0
 node=    91 local x,y,z forces =    0.0000E+00    0.0000E+00    0.0000E+00  setid=       0
 node=    92 local x,y,z forces =    0.0000E+00    0.0000E+00    0.0000E+00  setid=       0
 node=    93 local x,y,z forces =    0.0000E+00    0.0000E+00    0.0000E+00  setid=       0
 node=    94 local x,y,z forces =    0.0000E+00    0.0000E+00    0.0000E+00  setid=       0
 node=    95 local x,y,z forces =    0.0000E+00    0.0000E+00    0.0000E+00  setid=       0
 node=    96 local x,y,z forces =    0.0000E+00    0.0000E+00    0.0000E+00  setid=       0
 node=    97 local x,y,z forces =    0.0000E+00    0.0000E+00    0.0000E+00  setid=       0
 node=    98 local x,y,z forces =    0.0000E+00    0.0000E+00    0.0000E+00  setid=       0
 node=    99 local x,y,z forces =    0.0000E+00    0.0000E+00    0.0000E+00  setid=       0
 node=   100 local x,y,z forces =    0.0000E+00    0.0000E+00    0.0000E+00  setid=       0
 node=   101 local x,y,z forces =    0.0000E+00    0.0000E+00    0.0000E+00  setid=       0
 node=   102 local x,y,z forces =    0.0000E+00    0.0000E+00    0.0000E+00  setid=       0
 node=   103 local x,y,z forces =    0.0000E+00    0.0000E+00    0.0000E+00  setid=       0
 node=   104 local x,y,z forces =    0.0000E+00    0.0000E+00    0.0000E+00  setid=       0
 node=   105 local x,y,z forces =    0.0000E+00    0.0000E+00    0.0000E+00  setid=       0
 node=   106 local x,y,z forces =    0.0000E+00    0.0000E+00    0.0000E+00  setid=       0
 node=   107 local x,y,z forces =    0.0000E+00    0.0000E+00    0.0000E+00  setid=       0
 node=   108 local x,y,z forces =    0.0000E+00    0.0000E+00    0.0000E+00  setid=       0
 node=   109 local x,y,z forces =    0.0000E+00    0.0000E+00    0.0000E+00  setid=       0
 node=   110 local x,y,z forces =    0.0000E+00    0.0000E+00    0.0000E+00  setid=       0
 node=   111 local x,y,z forces =    0.0000E+00    0.0000E+00    0.0000E+00  setid=       0
 node=   112 local x,y,z forces =    0.0000E+00    0.0000E+00    0.0000E+00  setid=       0
 node=   113 local x,y,z forces =    0.0000E+00    0.0000E+00    0.0000E+00  setid=       0
 node=   114 local x,y,z forces =    0.0000E+00    0.0000E+00    0.0000E+00  setid=       0
 node=   115 local x,y,z forces =    0.0000E+00    0.0000E+00    0.0000E+00  setid=       0
 node=   116 local x,y,z forces =    0.0000E+00    0.0000E+00    0.0000E+00  setid=       0
 node=   117 local x,y,z forces =    0.0000E+00    0.0000E+00    0.0000E+00  setid=       0
 node=   118 local x,y,z forces =    0.0000E+00    0.0000E+00    0.0000E+00  setid=       0
 node=   119 local x,y,z forces =    0.0000E+00    0.0000E+00    0.0000E+00  setid=       0
 node=   120 local x,y,z forces =    0.0000E+00    0.0000E+00    0.0000E+00  setid=       0
 node=   121 local x,y,z forces =    0.0000E+00    0.0000E+00    0.0000E+00  setid=       0
 node=   122 local x,y,z forces =    0.0000E+00    0.0000E+00    0.0000E+00  setid=       0
 node=   123 local x,y,z forces =    0.0000E+00    0.0000E+00    0.0000E+00  setid=       0
 node=   124 local x,y,z forces =    0.0000E+00    0.0000E+00    0.0000E+00  setid=       0
 node=   125 local x,y,z forces =    0.0000E+00    0.0000E+00    0.0000E+00  setid=       0
 node=  3186 local x,y,z forces =    0.0000E+00    0.0000E+00    0.0000E+00  setid=       0
 node=  3190 local x,y,z forces =    0.0000E+00    0.0000E+00    0.0000E+00  setid=       0
 node=  6251 local x,y,z forces =    0.0000E+00    0.0000E+00    0.0000E+00  setid=       0
 node=  6252 local x,y,z forces =    0.0000E+00    0.0000E+00    0.0000E+00  setid=       0
 node=  6253 local x,y,z forces =    0.0000E+00    0.0000E+00    0.0000E+00  setid=       0
 node=  6254 local x,y,z forces =    0.0000E+00    0.0000E+00    0.0000E+00  setid=       0
 node=  6255 local x,y,z forces =    0.0000E+00    0.0000E+00    0.0000E+00  setid=       0
 node=  6256 local x,y,z forces =    0.0000E+00    0.0000E+00    0.0000E+00  setid=       0
 node=  6257 local x,y,z forces =    0.0000E+00    0.0000E+00    0.0000E+00  setid=       0
 node=  6258 local x,y,z forces =    0.0000E+00    0.0000E+00    0.0000E+00  setid=       0
 node=  6259 local x,y,z forces =    0.0000E+00    0.0000E+00    0.0000E+00  setid=       0
 node=  6260 local x,y,z forces =    0.0000E+00    0.0000E+00    0.0000E+00  setid=       0
 node=  6261 local x,y,z forces =    0.0000E+00    0.0000E+00    0.0000E+00  setid=       0
 node=  6262 local x,y,z forces =    0.0000E+00    0.0000E+00    0.0000E+00  setid=       0
 node=  6263 local x,y,z forces =    0.0000E+00    0.0000E+00    0.0000E+00  setid=       0
 node=  6264 local x,y,z forces =    0.0000E+00    0.0000E+00    0.0000E+00  setid=       0
 node=  6265 local x,y,z forces =    0.0000E+00    0.0000E+00    0.0000E+00  setid=       0
 node=  6266 local x,y,z forces =    0.0000E+00    0.0000E+00    0.0000E+00  setid=       0
 node=  6267 local x,y,z forces =    0.0000E+00    0.0000E+00    0.0000E+00  setid=       0
 node=  6268 local x,y,z forces =    0.0000E+00    0.0000E+00    0.0000E+00  setid=       0
 node=  6269 local x,y,z forces =    0.0000E+00    0.0000E+00    0.0000E+00  setid=       0
 node=  6270 local x,y,z forces =    0.0000E+00    0.0000E+00    0.0000E+00  setid=       0
 node=  6271 local x,y,z forces =    0.0000E+00    0.0000E+00    0.0000E+00  setid=       0
 node=  6272 local x,y,z forces =    0.0000E+00    0.0000E+00    0.0000E+00  setid=       0
 node=  6273 local x,y,z forces =    0.0000E+00    0.0000E+00    0.0000E+00  setid=       0
 node=  6274 local x,y,z forces =    0.0000E+00    0.0000E+00    0.0000E+00  setid=       0
 node=  6275 local x,y,z forces =    0.0000E+00    0.0000E+00    0.0000E+00  setid=       0
 node=  6276 local x,y,z forces =    0.0000E+00    0.0000E+00    0.0000E+00  setid=       0
 node=  6277 local x,y,z forces =    0.0000E+00    0.0000E+00    0.0000E+00  setid=       0
 node=  6278 local x,y,z forces =    0.0000E+00    0.0000E+00    0.0000E+00  setid=       0
 node=  6279 local x,y,z forces =    0.0000E+00    0.0000E+00    0.0000E+00  setid=       0
 node=  6280 local x,y,z forces =    0.0000E+00    0.0000E+00    0.0000E+00  setid=       0
 node=  6281 local x,y,z forces =    0.0000E+00    0.0000E+00    0.0000E+00  setid=       0
 node=  6282 local x,y,z forces =    0.0000E+00    0.0000E+00    0.0000E+00  setid=       0
 node=  6283 local x,y,z forces =    0.0000E+00    0.0000E+00    0.0000E+00  setid=       0
 node=  6284 local x,y,z forces =    0.0000E+00    0.0000E+00    0.0000E+00  setid=       0
 node=  6285 local x,y,z forces =    0.0000E+00    0.0000E+00    0.0000E+00  setid=       0
 node=  6286 local x,y,z forces =    0.0000E+00    0.0000E+00    0.0000E+00  setid=       0
 node=  6287 local x,y,z forces =    0.0000E+00    0.0000E+00    0.0000E+00  setid=       0
 node=  6288 local x,y,z forces =    0.0000E+00    0.0000E+00    0.0000E+00  setid=       0
 node=  6289 local x,y,z forces =    0.0000E+00    0.0000E+00    0.0000E+00  setid=       0
 node=  6290 local x,y,z forces =    0.0000E+00    0.0000E+00    0.0000E+00  setid=       0
 node=  6291 local x,y,z forces =    0.0000E+00    0.0000E+00    0.0000E+00  setid=       0
 node=  6292 local x,y,z forces =    0.0000E+00    0.0000E+00    0.0000E+00  setid=       0
 node=  6293 local x,y,z forces =    0.0000E+00    0.0000E+00    0.0000E+00  setid=       0
 node=  6294 local x,y,z forces =    0.0000E+00    0.0000E+00    0.0000E+00  setid=       0
 node=  6295 local x,y,z forces =    0.0000E+00    0.0000E+00    0.0000E+00  setid=       0
 node=  6296 local x,y,z forces =    0.0000E+00    0.0000E+00    0.0000E+00  setid=       0
 node=  6297 local x,y,z forces =    0.0000E+00    0.0000E+00    0.0000E+00  setid=       0
 node=  6298 local x,y,z forces =    0.0000E+00    0.0000E+00    0.0000E+00  setid=       0
 node=  6299 local x,y,z forces =    0.0000E+00    0.0000E+00    0.0000E+00  setid=       0
 node=  6300 local x,y,z forces =    0.0000E+00    0.0000E+00    0.0000E+00  setid=       0
 node=  6301 local x,y,z forces =    0.0000E+00    0.0000E+00    0.0000E+00  setid=       0
 node=  6302 local x,y,z forces =    0.0000E+00    0.0000E+00    0.0000E+00  setid=       0
 node=  6303 local x,y,z forces =    0.0000E+00    0.0000E+00    0.0000E+00  setid=       0
 node=  6304 local x,y,z forces =    0.0000E+00    0.0000E+00    0.0000E+00  setid=       0
 node=  6305 local x,y,z forces =    0.0000E+00    0.0000E+00    0.0000E+00  setid=       0
 node=  6306 local x,y,z forces =    0.0000E+00    0.0000E+00    0.0000E+00  setid=       0
 node=  6307 local x,y,z forces =    0.0000E+00    0.0000E+00    0.0000E+00  setid=       0
 node=  6308 local x,y,z forces =    0.0000E+00    0.0000E+00    0.0000E+00  setid=       0
 node=  6309 local x,y,z forces =    0.0000E+00    0.0000E+00    0.0000E+00  setid=       0
 node=  6310 local x,y,z forces =    0.0000E+00    0.0000E+00    0.0000E+00  setid=       0
 node=  6311 local x,y,z forces =    0.0000E+00    0.0000E+00    0.0000E+00  setid=       0
 node=  6312 local x,y,z forces =    0.0000E+00    0.0000E+00    0.0000E+00  setid=       0
 node=  6313 local x,y,z forces =    0.0000E+00    0.0000E+00    0.0000E+00  setid=       0
 node=  6314 local x,y,z forces =    0.0000E+00    0.0000E+00    0.0000E+00  setid=       0
 node=  6315 local x,y,z forces =    0.0000E+00    0.0000E+00    0.0000E+00  setid=       0
 node=  6316 local x,y,z forces =    0.0000E+00    0.0000E+00    0.0000E+00  setid=       0
 node=  6317 local x,y,z forces =    0.0000E+00    0.0000E+00    0.0000E+00  setid=       0
 node=  6318 local x,y,z forces =    0.0000E+00    0.0000E+00    0.0000E+00  setid=       0
 node=  6319 local x,y,z forces =    0.0000E+00    0.0000E+00    0.0000E+00  setid=       0
 node=  6320 local x,y,z forces =    0.0000E+00    0.0000E+00    0.0000E+00  setid=       0
 node=  6321 local x,y,z forces =    0.0000E+00    0.0000E+00    0.0000E+00  setid=       0
 node=  6322 local x,y,z forces =    0.0000E+00    0.0000E+00    0.0000E+00  setid=       0
 node=  6323 local x,y,z forces =    0.0000E+00    0.0000E+00    0.0000E+00  setid=       0
 node=  6324 local x,y,z forces =    0.0000E+00    0.0000E+00    0.0000E+00  setid=       0
 node=  6325 local x,y,z forces =    0.0000E+00    0.0000E+00    0.0000E+00  setid=       0
 node=  6326 local x,y,z forces =    0.0000E+00    0.0000E+00    0.0000E+00  setid=       0
 node=  6327 local x,y,z forces =    0.0000E+00    0.0000E+00    0.0000E+00  setid=       0
 node=  6328 local x,y,z forces =    0.0000E+00    0.0000E+00    0.0000E+00  setid=       0
 node=  6329 local x,y,z forces =    0.0000E+00    0.0000E+00    0.0000E+00  setid=       0
 node=  6330 local x,y,z forces =    0.0000E+00    0.0000E+00    0.0000E+00  setid=       0
 node=  6331 local x,y,z forces =    0.0000E+00    0.0000E+00    0.0000E+00  setid=       0
 node=  6332 local x,y,z forces =    0.0000E+00    0.0000E+00    0.0000E+00  setid=       0
 node=  6333 local x,y,z forces =    0.0000E+00    0.0000E+00    0.0000E+00  setid=       0
 node=  6334 local x,y,z forces =    0.0000E+00    0.0000E+00    0.0000E+00  setid=       0
 node=  6335 local x,y,z forces =    0.0000E+00    0.0000E+00    0.0000E+00  setid=       0
 node=  6336 local x,y,z forces =    0.0000E+00    0.0000E+00    0.0000E+00  setid=       0
 node=  6337 local x,y,z forces =    0.0000E+00    0.0000E+00    0.0000E+00  setid=       0
 node=  6338 local x,y,z forces =    0.0000E+00    0.0000E+00    0.0000E+00  setid=       0
 node=  6339 local x,y,z forces =    0.0000E+00    0.0000E+00    0.0000E+00  setid=       0
 node=  6340 local x,y,z forces =    0.0000E+00    0.0000E+00    0.0000E+00  setid=       0
 node=  6341 local x,y,z forces =    0.0000E+00    0.0000E+00    0.0000E+00  setid=       0
 node=  6342 local x,y,z forces =    0.0000E+00    0.0000E+00    0.0000E+00  setid=       0
 node=  6343 local x,y,z forces =    0.0000E+00    0.0000E+00    0.0000E+00  setid=       0
 node=  6344 local x,y,z forces =    0.0000E+00    0.0000E+00    0.0000E+00  setid=       0
 node=  6345 local x,y,z forces =    0.0000E+00    0.0000E+00    0.0000E+00  setid=       0
 node=  6346 local x,y,z forces =    0.0000E+00    0.0000E+00    0.0000E+00  setid=       0
 node=  6347 local x,y,z forces =    0.0000E+00    0.0000E+00    0.0000E+00  setid=       0
 node=  6348 local x,y,z forces =    0.0000E+00    0.0000E+00    0.0000E+00  setid=       0
 node=  6349 local x,y,z forces =    0.0000E+00    0.0000E+00    0.0000E+00  setid=       0
 node=  6350 local x,y,z forces =    0.0000E+00    0.0000E+00    0.0000E+00  setid=       0
 node=  6351 local x,y,z forces =    0.0000E+00    0.0000E+00    0.0000E+00  setid=       0
 node=  6352 local x,y,z forces =    0.0000E+00    0.0000E+00    0.0000E+00  setid=       0
 node=  6353 local x,y,z forces =    0.0000E+00    0.0000E+00    0.0000E+00  setid=       0
 node=  6354 local x,y,z forces =    0.0000E+00    0.0000E+00    0.0000E+00  setid=       0
 node=  6355 local x,y,z forces =    0.0000E+00    0.0000E+00    0.0000E+00  setid=       0
 node=  6356 local x,y,z forces =    0.0000E+00    0.0000E+00    0.0000E+00  setid=       0
 node=  6357 local x,y,z forces =    0.0000E+00    0.0000E+00    0.0000E+00  setid=       0
 node=  6358 local x,y,z forces =    0.0000E+00    0.0000E+00    0.0000E+00  setid=       0
 node=  6359 local x,y,z forces =    0.0000E+00    0.0000E+00    0.0000E+00  setid=       0
 node=  6360 local x,y,z forces =    0.0000E+00    0.0000E+00    0.0000E+00  setid=       0
 node=  6361 local x,y,z forces =    0.0000E+00    0.0000E+00    0.0000E+00  setid=       0
 node=  6362 local x,y,z forces =    0.0000E+00    0.0000E+00    0.0000E+00  setid=       0
 node=  6363 local x,y,z forces =    0.0000E+00    0.0000E+00    0.0000E+00  setid=       0
 node=  6364 local x,y,z forces =    0.0000E+00    0.0000E+00    0.0000E+00  setid=       0
 node=  6365 local x,y,z forces =    0.0000E+00    0.0000E+00    0.0000E+00  setid=       0
 node=  6366 local x,y,z forces =    0.0000E+00    0.0000E+00    0.0000E+00  setid=       0
 node=  6367 local x,y,z forces =    0.0000E+00    0.0000E+00    0.0000E+00  setid=       0
 node=  6368 local x,y,z forces =    0.0000E+00    0.0000E+00    0.0000E+00  setid=       0
 node=  6369 local x,y,z forces =    0.0000E+00    0.0000E+00    0.0000E+00  setid=       0
 node=  6370 local x,y,z forces =    0.0000E+00    0.0000E+00    0.0000E+00  setid=       0
 node=  6371 local x,y,z forces =    0.0000E+00    0.0000E+00    0.0000E+00  setid=       0
 node=  6372 local x,y,z forces =    0.0000E+00    0.0000E+00    0.0000E+00  setid=       0
 node=  6373 local x,y,z forces =    0.0000E+00    0.0000E+00    0.0000E+00  setid=       0
 node=  6374 local x,y,z forces =    0.0000E+00    0.0000E+00    0.0000E+00  setid=       0
 node=  6375 local x,y,z forces =    0.0000E+00    0.0000E+00    0.0000E+00  setid=       0
             force resultants   =    0.0000E+00    0.0000E+00    0.0000E+00
 output at time =   5.00000E-04
 node=     1 local x,y,z forces =   -5.8972E+03   -6.3270E+03   -1.2656E+04  setid=       0
 node=     2 local x,y,z forces =   -1.6953E+03   -1.2893E+04   -2.3275E+04  setid=       0
 node=     3 local x,y,z forces =   -1.0123E+03   -1.3686E+04   -2.3704E+04  setid=       0
 node=     4 local x,y,z forces =    8.0174E+01   -1.5048E+04   -2.6867E+04  setid=       0
 node=     5 local x,y,z forces =    6.8025E+03   -7.9691E+03   -1.5263E+04  setid=       0
 node=     6 local x,y,z forces =   -1.0415E+04   -1.8356E+03   -1.9674E+04  setid=       0
 node=     7 local x,y,z forces =   -3.0290E+03   -3.9995E+03   -3.5134E+04  setid=       0
 node=     8 local x,y,z forces =   -1.5865E+03   -4.4843E+03   -3.5205E+04  setid=       0
 node=     9 local x,y,z forces =    4.1515E+02   -4.9176E+03   -4.0916E+04  setid=       0
 node=    10 local x,y,z forces =    1.2342E+04   -2.6106E+03   -2.4055E+04  setid=       0
 node=    11 local x,y,z forces =   -8.9054E+03   -2.6168E+03   -1.6091E+04  setid=       0
 node=    12 local x,y,z forces =   -2.6595E+03   -5.5674E+03   -2.8356E+04  setid=       0
 node=    13 local x,y,z forces =   -1.0756E+03   -6.1513E+03   -2.8309E+04  setid=       0
 node=    14 local x,y,z forces =    7.0943E+02   -6.7507E+03   -3.3938E+04  setid=       0
 node=    15 local x,y,z forces =    1.1195E+04   -3.5571E+03   -2.0670E+04  setid=       0
 node=    16 local x,y,z forces =   -8.4228E+03   -2.0390E+03   -1.5542E+04  setid=       0
 node=    17 local x,y,z forces =   -2.5326E+03   -4.3041E+03   -2.7679E+04  setid=       0
 node=    18 local x,y,z forces =   -8.9470E+02   -4.7249E+03   -2.7979E+04  setid=       0
 node=    19 local x,y,z forces =    7.4909E+02   -5.1739E+03   -3.3968E+04  setid=       0
 node=    20 local x,y,z forces =    1.1090E+04   -2.7167E+03   -2.0857E+04  setid=       0
 node=    21 local x,y,z forces =   -8.0747E+03   -1.8439E+03   -1.4809E+04  setid=       0
 node=    22 local x,y,z forces =   -2.4695E+03   -3.8750E+03   -2.6452E+04  setid=       0
 node=    23 local x,y,z forces =   -8.1629E+02   -4.2181E+03   -2.6947E+04  setid=       0
 node=    24 local x,y,z forces =    7.4896E+02   -4.5718E+03   -3.3168E+04  setid=       0
 node=    25 local x,y,z forces =    1.1007E+04   -2.3857E+03   -2.0568E+04  setid=       0
 node=    26 local x,y,z forces =   -7.8761E+03   -1.5316E+03   -1.4524E+04  setid=       0
 node=    27 local x,y,z forces =   -2.4513E+03   -3.1992E+03   -2.6077E+04  setid=       0
 node=    28 local x,y,z forces =   -7.9149E+02   -3.4521E+03   -2.6776E+04  setid=       0
 node=    29 local x,y,z forces =    7.2640E+02   -3.7129E+03   -3.3206E+04  setid=       0
 node=    30 local x,y,z forces =    1.1004E+04   -1.9288E+03   -2.0671E+04  setid=       0
 node=    31 local x,y,z forces =   -7.7357E+03   -1.3075E+03   -1.4242E+04  setid=       0
 node=    32 local x,y,z forces =   -2.4495E+03   -2.7180E+03   -2.5640E+04  setid=       0
 node=    33 local x,y,z forces =   -7.8954E+02   -2.9115E+03   -2.6473E+04  setid=       0
 node=    34 local x,y,z forces =    7.0093E+02   -3.1080E+03   -3.3047E+04  setid=       0
 node=    35 local x,y,z forces =    1.1001E+04   -1.6084E+03   -2.0647E+04  setid=       0
 node=    36 local x,y,z forces =   -7.6458E+03   -1.0628E+03   -1.4097E+04  setid=       0
 node=    37 local x,y,z forces =   -2.4576E+03   -2.1999E+03   -2.5444E+04  setid=       0
 node=    38 local x,y,z forces =   -7.9892E+02   -2.3396E+03   -2.6390E+04  setid=       0
 node=    39 local x,y,z forces =    6.7678E+02   -2.4831E+03   -3.3078E+04  setid=       0
 node=    40 local x,y,z forces =    1.1009E+04   -1.2811E+03   -2.0704E+04  setid=       0
 node=    41 local x,y,z forces =   -7.5829E+03   -8.4583E+02   -1.3974E+04  setid=       0
 node=    42 local x,y,z forces =   -2.4673E+03   -1.7451E+03   -2.5258E+04  setid=       0
 node=    43 local x,y,z forces =   -8.1146E+02   -1.8465E+03   -2.6279E+04  setid=       0
 node=    44 local x,y,z forces =    6.5580E+02   -1.9505E+03   -3.3048E+04  setid=       0
 node=    45 local x,y,z forces =    1.1015E+04   -1.0040E+03   -2.0716E+04  setid=       0
 node=    46 local x,y,z forces =   -7.5430E+03   -6.2564E+02   -1.3905E+04  setid=       0
 node=    47 local x,y,z forces =   -2.4767E+03   -1.2881E+03   -2.5160E+04  setid=       0
 node=    48 local x,y,z forces =   -8.2381E+02   -1.3563E+03   -2.6240E+04  setid=       0
 node=    49 local x,y,z forces =    6.3900E+02   -1.4281E+03   -3.3066E+04  setid=       0
 node=    50 local x,y,z forces =    1.1022E+04   -7.3347E+02   -2.0746E+04  setid=       0
 node=    51 local x,y,z forces =   -7.5167E+03   -4.1634E+02   -1.3855E+04  setid=       0
 node=    52 local x,y,z forces =   -2.4858E+03   -8.5464E+02   -2.5084E+04  setid=       0
 node=    53 local x,y,z forces =   -8.3357E+02   -8.9840E+02   -2.6199E+04  setid=       0
 node=    54 local x,y,z forces =    6.2871E+02   -9.4280E+02   -3.3063E+04  setid=       0
 node=    55 local x,y,z forces =    1.1026E+04   -4.8421E+02   -2.0758E+04  setid=       0
 node=    56 local x,y,z forces =   -7.4919E+03   -2.0682E+02   -1.3817E+04  setid=       0
 node=    57 local x,y,z forces =   -2.4938E+03   -4.2180E+02   -2.5073E+04  setid=       0
 node=    58 local x,y,z forces =   -8.3992E+02   -4.4585E+02   -2.6157E+04  setid=       0
 node=    59 local x,y,z forces =    6.2487E+02   -4.6393E+02   -3.3096E+04  setid=       0
 node=    60 local x,y,z forces =    1.1018E+04   -2.3922E+02   -2.0756E+04  setid=       0
 node=    61 local x,y,z forces =   -7.4777E+03   -1.8190E-12   -1.3796E+04  setid=       0
 node=    62 local x,y,z forces =   -2.4972E+03    7.2760E-11   -2.5083E+04  setid=       0
 node=    63 local x,y,z forces =   -8.4212E+02   -6.5484E-11   -2.6123E+04  setid=       0
 node=    64 local x,y,z forces =    6.2450E+02    6.0027E-11   -3.3119E+04  setid=       0
 node=    65 local x,y,z forces =    1.1009E+04   -1.2733E-11   -2.0745E+04  setid=       0
 node=    66 local x,y,z forces =   -7.4919E+03    2.0682E+02   -1.3817E+04  setid=       0
 node=    67 local x,y,z forces =   -2.4938E+03    4.2180E+02   -2.5073E+04  setid=       0
 node=    68 local x,y,z forces =   -8.3992E+02    4.4585E+02   -2.6157E+04  setid=       0
 node=    69 local x,y,z forces =    6.2487E+02    4.6393E+02   -3.3096E+04  setid=       0
 node=    70 local x,y,z forces =    1.1018E+04    2.3922E+02   -2.0756E+04  setid=       0
 node=    71 local x,y,z forces =   -7.5167E+03    4.1634E+02   -1.3855E+04  setid=       0
 node=    72 local x,y,z forces =   -2.4858E+03    8.5464E+02   -2.5084E+04  setid=       0
 node=    73 local x,y,z forces =   -8.3357E+02    8.9840E+02   -2.6199E+04  setid=       0
 node=    74 local x,y,z forces =    6.2871E+02    9.4280E+02   -3.3063E+04  setid=       0
 node=    75 local x,y,z forces =    1.1026E+04    4.8421E+02   -2.0758E+04  setid=       0
 node=    76 local x,y,z forces =   -7.5430E+03    6.2564E+02   -1.3905E+04  setid=       0
 node=    77 local x,y,z forces =   -2.4767E+03    1.2881E+03   -2.5160E+04  setid=       0
 node=    78 local x,y,z forces =   -8.2381E+02    1.3563E+03   -2.6240E+04  setid=       0
 node=    79 local x,y,z forces =    6.3900E+02    1.4281E+03   -3.3066E+04  setid=       0
 node=    80 local x,y,z forces =    1.1022E+04    7.3347E+02   -2.0746E+04  setid=       0
 node=    81 local x,y,z forces =   -7.5829E+03    8.4583E+02   -1.3974E+04  setid=       0
 node=    82 local x,y,z forces =   -2.4673E+03    1.7451E+03   -2.5258E+04  setid=       0
 node=    83 local x,y,z forces =   -8.1146E+02    1.8465E+03   -2.6279E+04  setid=       0
 node=    84 local x,y,z forces =    6.5580E+02    1.9505E+03   -3.3048E+04  setid=       0
 node=    85 local x,y,z forces =    1.1015E+04    1.0040E+03   -2.0716E+04  setid=       0
 node=    86 local x,y,z forces =   -7.6458E+03    1.0628E+03   -1.4097E+04  setid=       0
 node=    87 local x,y,z forces =   -2.4576E+03    2.1999E+03   -2.5444E+04  setid=       0
 node=    88 local x,y,z forces =   -7.9892E+02    2.3396E+03   -2.6390E+04  setid=       0
 node=    89 local x,y,z forces =    6.7678E+02    2.4831E+03   -3.3078E+04  setid=       0
 node=    90 local x,y,z forces =    1.1009E+04    1.2811E+03   -2.0704E+04  setid=       0
 node=    91 local x,y,z forces =   -7.7357E+03    1.3075E+03   -1.4242E+04  setid=       0
 node=    92 local x,y,z forces =   -2.4495E+03    2.7180E+03   -2.5640E+04  setid=       0
 node=    93 local x,y,z forces =   -7.8954E+02    2.9115E+03   -2.6473E+04  setid=       0
 node=    94 local x,y,z forces =    7.0093E+02    3.1080E+03   -3.3047E+04  setid=       0
 node=    95 local x,y,z forces =    1.1001E+04    1.6084E+03   -2.0647E+04  setid=       0
 node=    96 local x,y,z forces =   -7.8761E+03    1.5316E+03   -1.4524E+04  setid=       0
 node=    97 local x,y,z forces =   -2.4513E+03    3.1992E+03   -2.6077E+04  setid=       0
 node=    98 local x,y,z forces =   -7.9149E+02    3.4521E+03   -2.6776E+04  setid=       0
 node=    99 local x,y,z forces =    7.2640E+02    3.7129E+03   -3.3206E+04  setid=       0
 node=   100 local x,y,z forces =    1.1004E+04    1.9288E+03   -2.0671E+04  setid=       0
 node=   101 local x,y,z forces =   -8.0747E+03    1.8439E+03   -1.4809E+04  setid=       0
 node=   102 local x,y,z forces =   -2.4695E+03    3.8750E+03   -2.6452E+04  setid=       0
 node=   103 local x,y,z forces =   -8.1629E+02    4.2181E+03   -2.6947E+04  setid=       0
 node=   104 local x,y,z forces =    7.4896E+02    4.5718E+03   -3.3168E+04  setid=       0
 node=   105 local x,y,z forces =    1.1007E+04    2.3857E+03   -2.0568E+04  setid=       0
 node=   106 local x,y,z forces =   -8.4228E+03    2.0390E+03   -1.5542E+04  setid=       0
 node=   107 local x,y,z forces =   -2.5326E+03    4.3041E+03   -2.7679E+04  setid=       0
 node=   108 local x,y,z forces =   -8.9470E+02    4.7249E+03   -2.7979E+04  setid=       0
 node=   109 local x,y,z forces =    7.4909E+02    5.1739E+03   -3.3968E+04  setid=       0
 node=   110 local x,y,z forces =    1.1090E+04    2.7167E+03   -2.0857E+04  setid=       0
 node=   111 local x,y,z forces =   -8.9054E+03    2.6168E+03   -1.6091E+04  setid=       0
 node=   112 local x,y,z forces =   -2.6595E+03    5.5674E+03   -2.8356E+04  setid=       0
 node=   113 local x,y,z forces =   -1.0756E+03    6.1513E+03   -2.8309E+04  setid=       0
 node=   114 local x,y,z forces =    7.0943E+02    6.7507E+03   -3.3938E+04  setid=       0
 node=   115 local x,y,z forces =    1.1195E+04    3.5571E+03   -2.0670E+04  setid=       0
 node=   116 local x,y,z forces =   -1.0415E+04    1.8356E+03   -1.9674E+04  setid=       0
 node=   117 local x,y,z forces =   -3.0290E+03    3.9995E+03   -3.5134E+04  setid=       0
 node=   118 local x,y,z forces =   -1.5865E+03    4.4843E+03   -3.5205E+04  setid=       0
 node=   119 local x,y,z forces =    4.1515E+02    4.9176E+03   -4.0916E+04  setid=       0
 node=   120 local x,y,z forces =    1.2342E+04    2.6106E+03   -2.4055E+04  setid=       0
 node=   121 local x,y,z forces =   -5.8972E+03    6.3270E+03   -1.2656E+04  setid=       0
 node=   122 local x,y,z forces =   -1.6953E+03    1.2893E+04   -2.3275E+04  setid=       0
 node=   123 local x,y,z forces =   -1.0123E+03    1.3686E+04   -2.3704E+04  setid=       0
 node=   124 local x,y,z forces =    8.0174E+01    1.5048E+04   -2.6867E+04  setid=       0
 node=   125 local x,y,z forces =    6.8025E+03    7.9691E+03   -1.5263E+04  setid=       0
 node=  3186 local x,y,z forces =   -1.3988E+04    0.0000E+00    0.0000E+00  setid=       0
 node=  3190 local x,y,z forces =    1.3988E+04    0.0000E+00    0.0000E+00  setid=       0
 node=  6251 local x,y,z forces =   -6.8025E+03   -7.9691E+03    0.0000E+00  setid=       0
 node=  6252 local x,y,z forces =   -8.0177E+01   -1.5048E+04    0.0000E+00  setid=       0
 node=  6253 local x,y,z forces =    1.0123E+03   -1.3686E+04    0.0000E+00  setid=       0
 node=  6254 local x,y,z forces =    1.6953E+03   -1.2893E+04    0.0000E+00  setid=       0
 node=  6255 local x,y,z forces =    5.8972E+03   -6.3270E+03    0.0000E+00  setid=       0
 node=  6256 local x,y,z forces =   -1.2342E+04   -2.6106E+03    0.0000E+00  setid=       0
 node=  6257 local x,y,z forces =   -4.1516E+02   -4.9176E+03    0.0000E+00  setid=       0
 node=  6258 local x,y,z forces =    1.5865E+03   -4.4843E+03    0.0000E+00  setid=       0
 node=  6259 local x,y,z forces =    3.0290E+03   -3.9995E+03    0.0000E+00  setid=       0
 node=  6260 local x,y,z forces =    1.0415E+04   -1.8356E+03    0.0000E+00  setid=       0
 node=  6261 local x,y,z forces =   -1.1195E+04   -3.5571E+03    0.0000E+00  setid=       0
 node=  6262 local x,y,z forces =   -7.0944E+02   -6.7507E+03    0.0000E+00  setid=       0
 node=  6263 local x,y,z forces =    1.0757E+03   -6.1513E+03    0.0000E+00  setid=       0
 node=  6264 local x,y,z forces =    2.6595E+03   -5.5674E+03    0.0000E+00  setid=       0
 node=  6265 local x,y,z forces =    8.9054E+03   -2.6168E+03    0.0000E+00  setid=       0
 node=  6266 local x,y,z forces =   -1.1090E+04   -2.7167E+03    0.0000E+00  setid=       0
 node=  6267 local x,y,z forces =   -7.4910E+02   -5.1739E+03    0.0000E+00  setid=       0
 node=  6268 local x,y,z forces =    8.9471E+02   -4.7249E+03    0.0000E+00  setid=       0
 node=  6269 local x,y,z forces =    2.5326E+03   -4.3041E+03    0.0000E+00  setid=       0
 node=  6270 local x,y,z forces =    8.4228E+03   -2.0390E+03    0.0000E+00  setid=       0
 node=  6271 local x,y,z forces =   -1.1007E+04   -2.3857E+03    0.0000E+00  setid=       0
 node=  6272 local x,y,z forces =   -7.4897E+02   -4.5718E+03    0.0000E+00  setid=       0
 node=  6273 local x,y,z forces =    8.1630E+02   -4.2181E+03    0.0000E+00  setid=       0
 node=  6274 local x,y,z forces =    2.4695E+03   -3.8750E+03    0.0000E+00  setid=       0
 node=  6275 local x,y,z forces =    8.0747E+03   -1.8439E+03    0.0000E+00  setid=       0
 node=  6276 local x,y,z forces =   -1.1004E+04   -1.9288E+03    0.0000E+00  setid=       0
 node=  6277 local x,y,z forces =   -7.2640E+02   -3.7129E+03    0.0000E+00  setid=       0
 node=  6278 local x,y,z forces =    7.9150E+02   -3.4521E+03    0.0000E+00  setid=       0
 node=  6279 local x,y,z forces =    2.4513E+03   -3.1992E+03    0.0000E+00  setid=       0
 node=  6280 local x,y,z forces =    7.8761E+03   -1.5316E+03    0.0000E+00  setid=       0
 node=  6281 local x,y,z forces =   -1.1001E+04   -1.6084E+03    0.0000E+00  setid=       0
 node=  6282 local x,y,z forces =   -7.0094E+02   -3.1080E+03    0.0000E+00  setid=       0
 node=  6283 local x,y,z forces =    7.8955E+02   -2.9115E+03    0.0000E+00  setid=       0
 node=  6284 local x,y,z forces =    2.4495E+03   -2.7180E+03    0.0000E+00  setid=       0
 node=  6285 local x,y,z forces =    7.7357E+03   -1.3075E+03    0.0000E+00  setid=       0
 node=  6286 local x,y,z forces =   -1.1009E+04   -1.2811E+03    0.0000E+00  setid=       0
 node=  6287 local x,y,z forces =   -6.7679E+02   -2.4831E+03    0.0000E+00  setid=       0
 node=  6288 local x,y,z forces =    7.9893E+02   -2.3396E+03    0.0000E+00  setid=       0
 node=  6289 local x,y,z forces =    2.4576E+03   -2.1999E+03    0.0000E+00  setid=       0
 node=  6290 local x,y,z forces =    7.6458E+03   -1.0628E+03    0.0000E+00  setid=       0
 node=  6291 local x,y,z forces =   -1.1015E+04   -1.0040E+03    0.0000E+00  setid=       0
 node=  6292 local x,y,z forces =   -6.5581E+02   -1.9505E+03    0.0000E+00  setid=       0
 node=  6293 local x,y,z forces =    8.1147E+02   -1.8465E+03    0.0000E+00  setid=       0
 node=  6294 local x,y,z forces =    2.4673E+03   -1.7451E+03    0.0000E+00  setid=       0
 node=  6295 local x,y,z forces =    7.5829E+03   -8.4583E+02    0.0000E+00  setid=       0
 node=  6296 local x,y,z forces =   -1.1022E+04   -7.3347E+02    0.0000E+00  setid=       0
 node=  6297 local x,y,z forces =   -6.3900E+02   -1.4281E+03    0.0000E+00  setid=       0
 node=  6298 local x,y,z forces =    8.2382E+02   -1.3563E+03    0.0000E+00  setid=       0
 node=  6299 local x,y,z forces =    2.4767E+03   -1.2881E+03    0.0000E+00  setid=       0
 node=  6300 local x,y,z forces =    7.5430E+03   -6.2564E+02    0.0000E+00  setid=       0
 node=  6301 local x,y,z forces =   -1.1026E+04   -4.8421E+02    0.0000E+00  setid=       0
 node=  6302 local x,y,z forces =   -6.2871E+02   -9.4280E+02    0.0000E+00  setid=       0
 node=  6303 local x,y,z forces =    8.3358E+02   -8.9840E+02    0.0000E+00  setid=       0
 node=  6304 local x,y,z forces =    2.4858E+03   -8.5464E+02    0.0000E+00  setid=       0
 node=  6305 local x,y,z forces =    7.5167E+03   -4.1634E+02    0.0000E+00  setid=       0
 node=  6306 local x,y,z forces =   -1.1018E+04   -2.3922E+02    0.0000E+00  setid=       0
 node=  6307 local x,y,z forces =   -6.2487E+02   -4.6393E+02    0.0000E+00  setid=       0
 node=  6308 local x,y,z forces =    8.3993E+02   -4.4585E+02    0.0000E+00  setid=       0
 node=  6309 local x,y,z forces =    2.4938E+03   -4.2180E+02    0.0000E+00  setid=       0
 node=  6310 local x,y,z forces =    7.4919E+03   -2.0682E+02    0.0000E+00  setid=       0
 node=  6311 local x,y,z forces =   -1.1009E+04    7.2760E-12    0.0000E+00  setid=       0
 node=  6312 local x,y,z forces =   -6.2451E+02    3.4925E-10    0.0000E+00  setid=       0
 node=  6313 local x,y,z forces =    8.4213E+02    1.5643E-10    0.0000E+00  setid=       0
 node=  6314 local x,y,z forces =    2.4972E+03    1.4552E-11    0.0000E+00  setid=       0
 node=  6315 local x,y,z forces =    7.4776E+03    2.6739E-10    0.0000E+00  setid=       0
 node=  6316 local x,y,z forces =   -1.1018E+04    2.3922E+02    0.0000E+00  setid=       0
 node=  6317 local x,y,z forces =   -6.2487E+02    4.6393E+02    0.0000E+00  setid=       0
 node=  6318 local x,y,z forces =    8.3993E+02    4.4585E+02    0.0000E+00  setid=       0
 node=  6319 local x,y,z forces =    2.4938E+03    4.2180E+02    0.0000E+00  setid=       0
 node=  6320 local x,y,z forces =    7.4919E+03    2.0682E+02    0.0000E+00  setid=       0
 node=  6321 local x,y,z forces =   -1.1026E+04    4.8421E+02    0.0000E+00  setid=       0
 node=  6322 local x,y,z forces =   -6.2871E+02    9.4280E+02    0.0000E+00  setid=       0
 node=  6323 local x,y,z forces =    8.3358E+02    8.9840E+02    0.0000E+00  setid=       0
 node=  6324 local x,y,z forces =    2.4858E+03    8.5464E+02    0.0000E+00  setid=       0
 node=  6325 local x,y,z forces =    7.5167E+03    4.1634E+02    0.0000E+00  setid=       0
 node=  6326 local x,y,z forces =   -1.1022E+04    7.3347E+02    0.0000E+00  setid=       0
 node=  6327 local x,y,z forces =   -6.3900E+02    1.4281E+03    0.0000E+00  setid=       0
 node=  6328 local x,y,z forces =    8.2382E+02    1.3563E+03    0.0000E+00  setid=       0
 node=  6329 local x,y,z forces =    2.4767E+03    1.2881E+03    0.0000E+00  setid=       0
 node=  6330 local x,y,z forces =    7.5430E+03    6.2564E+02    0.0000E+00  setid=       0
 node=  6331 local x,y,z forces =   -1.1015E+04    1.0040E+03    0.0000E+00  setid=       0
 node=  6332 local x,y,z forces =   -6.5581E+02    1.9505E+03    0.0000E+00  setid=       0
 node=  6333 local x,y,z forces =    8.1147E+02    1.8465E+03    0.0000E+00  setid=       0
 node=  6334 local x,y,z forces =    2.4673E+03    1.7451E+03    0.0000E+00  setid=       0
 node=  6335 local x,y,z forces =    7.5829E+03    8.4583E+02    0.0000E+00  setid=       0
 node=  6336 local x,y,z forces =   -1.1009E+04    1.2811E+03    0.0000E+00  setid=       0
 node=  6337 local x,y,z forces =   -6.7679E+02    2.4831E+03    0.0000E+00  setid=       0
 node=  6338 local x,y,z forces =    7.9893E+02    2.3396E+03    0.0000E+00  setid=       0
 node=  6339 local x,y,z forces =    2.4576E+03    2.1999E+03    0.0000E+00  setid=       0
 node=  6340 local x,y,z forces =    7.6458E+03    1.0628E+03    0.0000E+00  setid=       0
 node=  6341 local x,y,z forces =   -1.1001E+04    1.6084E+03    0.0000E+00  setid=       0
 node=  6342 local x,y,z forces =   -7.0094E+02    3.1080E+03    0.0000E+00  setid=       0
 node=  6343 local x,y,z forces =    7.8955E+02    2.9115E+03    0.0000E+00  setid=       0
 node=  6344 local x,y,z forces =    2.4495E+03    2.7180E+03    0.0000E+00  setid=       0
 node=  6345 local x,y,z forces =    7.7357E+03    1.3075E+03    0.0000E+00  setid=       0
 node=  6346 local x,y,z forces =   -1.1004E+04    1.9288E+03    0.0000E+00  setid=       0
 node=  6347 local x,y,z forces =   -7.2640E+02    3.7129E+03    0.0000E+00  setid=       0
 node=  6348 local x,y,z forces =    7.9150E+02    3.4521E+03    0.0000E+00  setid=       0
 node=  6349 local x,y,z forces =    2.4513E+03    3.1992E+03    0.0000E+00  setid=       0
 node=  6350 local x,y,z forces =    7.8761E+03    1.5316E+03    0.0000E+00  setid=       0
 node=  6351 local x,y,z forces =   -1.1007E+04    2.3857E+03    0.0000E+00  setid=       0
 node=  6352 local x,y,z forces =   -7.4897E+02    4.5718E+03    0.0000E+00  setid=       0
 node=  6353 local x,y,z forces =    8.1630E+02    4.2181E+03    0.0000E+00  setid=       0
 node=  6354 local x,y,z forces =    2.4695E+03    3.8750E+03    0.0000E+00  setid=       0
 node=  6355 local x,y,z forces =    8.0747E+03    1.8439E+03    0.0000E+00  setid=       0
 node=  6356 local x,y,z forces =   -1.1090E+04    2.7167E+03    0.0000E+00  setid=       0
 node=  6357 local x,y,z forces =   -7.4910E+02    5.1739E+03    0.0000E+00  setid=       0
 node=  6358 local x,y,z forces =    8.9471E+02    4.7249E+03    0.0000E+00  setid=       0
 node=  6359 local x,y,z forces =    2.5326E+03    4.3041E+03    0.0000E+00  setid=       0
 node=  6360 local x,y,z forces =    8.4228E+03    2.0390E+03    0.0000E+00  setid=       0
 node=  6361 local x,y,z forces =   -1.1195E+04    3.5571E+03    0.0000E+00  setid=       0
 node=  6362 local x,y,z forces =   -7.0944E+02    6.7507E+03    0.0000E+00  setid=       0
 node=  6363 local x,y,z forces =    1.0757E+03    6.1513E+03    0.0000E+00  setid=       0
 node=  6364 local x,y,z forces =    2.6595E+03    5.5674E+03    0.0000E+00  setid=       0
 node=  6365 local x,y,z forces =    8.9054E+03    2.6168E+03    0.0000E+00  setid=       0
 node=  6366 local x,y,z forces =   -1.2342E+04    2.6106E+03    0.0000E+00  setid=       0
 node=  6367 local x,y,z forces =   -4.1516E+02    4.9176E+03    0.0000E+00  setid=       0
 node=  6368 local x,y,z forces =    1.5865E+03    4.4843E+03    0.0000E+00  setid=       0
 node=  6369 local x,y,z forces =    3.0290E+03    3.9995E+03    0.0000E+00  setid=       0
 node=  6370 local x,y,z forces =    1.0415E+04    1.8356E+03    0.0000E+00  setid=       0
 node=  6371 local x,y,z forces =   -6.8025E+03    7.9691E+03    0.0000E+00  setid=       0
 node=  6372 local x,y,z forces =   -8.0177E+01    1.5048E+04    0.0000E+00  setid=       0
 node=  6373 local x,y,z forces =    1.0123E+03    1.3686E+04    0.0000E+00  setid=       0
 node=  6374 local x,y,z forces =    1.6953E+03    1.2893E+04    0.0000E+00  setid=       0
 node=  6375 local x,y,z forces =    5.8972E+03    6.3270E+03    0.0000E+00  setid=       0
             force resultants   =    3.2800E-02    8.3164E-09   -3.0576E+06
 output at time =   1.00000E-03
 node=     1 local x,y,z forces =   -1.1461E+04   -1.2053E+04   -2.4379E+04  setid=       0
 node=     2 local x,y,z forces =   -3.9523E+03   -2.4956E+04   -4.5194E+04  setid=       0
 node=     3 local x,y,z forces =   -2.7641E+03   -2.7279E+04   -4.7266E+04  setid=       0
 node=     4 local x,y,z forces =   -4.1958E+02   -3.0741E+04   -5.4800E+04  setid=       0
 node=     5 local x,y,z forces =    1.3854E+04   -1.6448E+04   -3.1304E+04  setid=       0
 node=     6 local x,y,z forces =   -2.0129E+04   -3.3818E+03   -3.7805E+04  setid=       0
 node=     7 local x,y,z forces =   -6.9580E+03   -7.6360E+03   -6.8114E+04  setid=       0
 node=     8 local x,y,z forces =   -4.3287E+03   -8.9354E+03   -7.0192E+04  setid=       0
 node=     9 local x,y,z forces =   -1.0420E+02   -1.0133E+04   -8.3532E+04  setid=       0
 node=    10 local x,y,z forces =    2.5235E+04   -5.4815E+03   -4.9408E+04  setid=       0
 node=    11 local x,y,z forces =   -1.6984E+04   -4.8730E+03   -3.0578E+04  setid=       0
 node=    12 local x,y,z forces =   -5.9752E+03   -1.0657E+04   -5.4662E+04  setid=       0
 node=    13 local x,y,z forces =   -2.9256E+03   -1.2262E+04   -5.6439E+04  setid=       0
 node=    14 local x,y,z forces =    7.2937E+02   -1.3899E+04   -6.9547E+04  setid=       0
 node=    15 local x,y,z forces =    2.3085E+04   -7.4375E+03   -4.2737E+04  setid=       0
 node=    16 local x,y,z forces =   -1.5878E+04   -3.8109E+03   -2.9204E+04  setid=       0
 node=    17 local x,y,z forces =   -5.6598E+03   -8.2467E+03   -5.3043E+04  setid=       0
 node=    18 local x,y,z forces =   -2.4270E+03   -9.4183E+03   -5.5779E+04  setid=       0
 node=    19 local x,y,z forces =    8.6970E+02   -1.0647E+04   -6.9876E+04  setid=       0
 node=    20 local x,y,z forces =    2.3020E+04   -5.6713E+03   -4.3390E+04  setid=       0
 node=    21 local x,y,z forces =   -1.5078E+04   -3.4705E+03   -2.7566E+04  setid=       0
 node=    22 local x,y,z forces =   -5.5089E+03   -7.4543E+03   -5.0426E+04  setid=       0
 node=    23 local x,y,z forces =   -2.2083E+03   -8.4086E+03   -5.3721E+04  setid=       0
 node=    24 local x,y,z forces =    8.9388E+02   -9.3849E+03   -6.8449E+04  setid=       0
 node=    25 local x,y,z forces =    2.2960E+04   -4.9630E+03   -4.2992E+04  setid=       0
 node=    26 local x,y,z forces =   -1.4604E+04   -2.9005E+03   -2.6843E+04  setid=       0
 node=    27 local x,y,z forces =   -5.4736E+03   -6.1744E+03   -4.9515E+04  setid=       0
 node=    28 local x,y,z forces =   -2.1376E+03   -6.8816E+03   -5.3379E+04  setid=       0
 node=    29 local x,y,z forces =    8.4722E+02   -7.6051E+03   -6.8691E+04  setid=       0
 node=    30 local x,y,z forces =    2.3032E+04   -3.9992E+03   -4.3353E+04  setid=       0
 node=    31 local x,y,z forces =   -1.4267E+04   -2.4898E+03   -2.6174E+04  setid=       0
 node=    32 local x,y,z forces =   -5.4782E+03   -5.2625E+03   -4.8527E+04  setid=       0
 node=    33 local x,y,z forces =   -2.1302E+03   -5.8041E+03   -5.2775E+04  setid=       0
 node=    34 local x,y,z forces =    7.8766E+02   -6.3524E+03   -6.8486E+04  setid=       0
 node=    35 local x,y,z forces =    2.3083E+04   -3.3243E+03   -4.3411E+04  setid=       0
 node=    36 local x,y,z forces =   -1.4047E+04   -2.0333E+03   -2.5804E+04  setid=       0
 node=    37 local x,y,z forces =   -5.5062E+03   -4.2706E+03   -4.8044E+04  setid=       0
 node=    38 local x,y,z forces =   -2.1547E+03   -4.6639E+03   -5.2609E+04  setid=       0
 node=    39 local x,y,z forces =    7.2711E+02   -5.0654E+03   -6.8642E+04  setid=       0
 node=    40 local x,y,z forces =    2.3141E+04   -2.6404E+03   -4.3609E+04  setid=       0
 node=    41 local x,y,z forces =   -1.3892E+04   -1.6237E+03   -2.5500E+04  setid=       0
 node=    42 local x,y,z forces =   -5.5371E+03   -3.3948E+03   -4.7608E+04  setid=       0
 node=    43 local x,y,z forces =   -2.1882E+03   -3.6811E+03   -5.2388E+04  setid=       0
 node=    44 local x,y,z forces =    6.7345E+02   -3.9728E+03   -6.8647E+04  setid=       0
 node=    45 local x,y,z forces =    2.3182E+04   -2.0647E+03   -4.3691E+04  setid=       0
 node=    46 local x,y,z forces =   -1.3792E+04   -1.2044E+03   -2.5322E+04  setid=       0
 node=    47 local x,y,z forces =   -5.5659E+03   -2.5099E+03   -4.7364E+04  setid=       0
 node=    48 local x,y,z forces =   -2.2216E+03   -2.7039E+03   -5.2310E+04  setid=       0
 node=    49 local x,y,z forces =    6.2974E+02   -2.9051E+03   -6.8732E+04  setid=       0
 node=    50 local x,y,z forces =    2.3216E+04   -1.5056E+03   -4.3793E+04  setid=       0
 node=    51 local x,y,z forces =   -1.3727E+04   -8.0286E+02   -2.5194E+04  setid=       0
 node=    52 local x,y,z forces =   -5.5914E+03   -1.6671E+03   -4.7180E+04  setid=       0
 node=    53 local x,y,z forces =   -2.2481E+03   -1.7910E+03   -5.2228E+04  setid=       0
 node=    54 local x,y,z forces =    6.0161E+02   -1.9163E+03   -6.8756E+04  setid=       0
 node=    55 local x,y,z forces =    2.3237E+04   -9.9275E+02   -4.3844E+04  setid=       0
 node=    56 local x,y,z forces =   -1.3670E+04   -3.9933E+02   -2.5104E+04  setid=       0
 node=    57 local x,y,z forces =   -5.6119E+03   -8.2339E+02   -4.7139E+04  setid=       0
 node=    58 local x,y,z forces =   -2.2653E+03   -8.8881E+02   -5.2146E+04  setid=       0
 node=    59 local x,y,z forces =    5.8904E+02   -9.4262E+02   -6.8841E+04  setid=       0
 node=    60 local x,y,z forces =    2.3229E+04   -4.9003E+02   -4.3856E+04  setid=       0
 node=    61 local x,y,z forces =   -1.3640E+04   -1.6371E-11   -2.5056E+04  setid=       0
 node=    62 local x,y,z forces =   -5.6202E+03    6.1846E-11   -4.7153E+04  setid=       0
 node=    63 local x,y,z forces =   -2.2712E+03    6.5484E-11   -5.2077E+04  setid=       0
 node=    64 local x,y,z forces =    5.8669E+02    4.7294E-11   -6.8891E+04  setid=       0
 node=    65 local x,y,z forces =    2.3214E+04   -2.9104E-11   -4.3840E+04  setid=       0
 node=    66 local x,y,z forces =   -1.3670E+04    3.9933E+02   -2.5104E+04  setid=       0
 node=    67 local x,y,z forces =   -5.6119E+03    8.2339E+02   -4.7139E+04  setid=       0
 node=    68 local x,y,z forces =   -2.2653E+03    8.8881E+02   -5.2146E+04  setid=       0
 node=    69 local x,y,z forces =    5.8904E+02    9.4262E+02   -6.8841E+04  setid=       0
 node=    70 local x,y,z forces =    2.3229E+04    4.9003E+02   -4.3856E+04  setid=       0
 node=    71 local x,y,z forces =   -1.3727E+04    8.0286E+02   -2.5194E+04  setid=       0
 node=    72 local x,y,z forces =   -5.5914E+03    1.6671E+03   -4.7180E+04  setid=       0
 node=    73 local x,y,z forces =   -2.2481E+03    1.7910E+03   -5.2228E+04  setid=       0
 node=    74 local x,y,z forces =    6.0161E+02    1.9163E+03   -6.8756E+04  setid=       0
 node=    75 local x,y,z forces =    2.3237E+04    9.9275E+02   -4.3844E+04  setid=       0
 node=    76 local x,y,z forces =   -1.3792E+04    1.2044E+03   -2.5322E+04  setid=       0
 node=    77 local x,y,z forces =   -5.5659E+03    2.5099E+03   -4.7364E+04  setid=       0
 node=    78 local x,y,z forces =   -2.2216E+03    2.7039E+03   -5.2310E+04  setid=       0
 node=    79 local x,y,z forces =    6.2974E+02    2.9051E+03   -6.8732E+04  setid=       0
 node=    80 local x,y,z forces =    2.3216E+04    1.5056E+03   -4.3793E+04  setid=       0
 node=    81 local x,y,z forces =   -1.3892E+04    1.6237E+03   -2.5500E+04  setid=       0
 node=    82 local x,y,z forces =   -5.5371E+03    3.3948E+03   -4.7608E+04  setid=       0
 node=    83 local x,y,z forces =   -2.1882E+03    3.6811E+03   -5.2388E+04  setid=       0
 node=    84 local x,y,z forces =    6.7345E+02    3.9728E+03   -6.8647E+04  setid=       0
 node=    85 local x,y,z forces =    2.3182E+04    2.0647E+03   -4.3691E+04  setid=       0
 node=    86 local x,y,z forces =   -1.4047E+04    2.0333E+03   -2.5804E+04  setid=       0
 node=    87 local x,y,z forces =   -5.5062E+03    4.2706E+03   -4.8044E+04  setid=       0
 node=    88 local x,y,z forces =   -2.1547E+03    4.6639E+03   -5.2609E+04  setid=       0
 node=    89 local x,y,z forces =    7.2711E+02    5.0654E+03   -6.8642E+04  setid=       0
 node=    90 local x,y,z forces =    2.3141E+04    2.6404E+03   -4.3609E+04  setid=       0
 node=    91 local x,y,z forces =   -1.4267E+04    2.4898E+03   -2.6174E+04  setid=       0
 node=    92 local x,y,z forces =   -5.4782E+03    5.2625E+03   -4.8527E+04  setid=       0
 node=    93 local x,y,z forces =   -2.1302E+03    5.8041E+03   -5.2775E+04  setid=       0
 node=    94 local x,y,z forces =    7.8766E+02    6.3524E+03   -6.8486E+04  setid=       0
 node=    95 local x,y,z forces =    2.3083E+04    3.3243E+03   -4.3411E+04  setid=       0
 node=    96 local x,y,z forces =   -1.4604E+04    2.9005E+03   -2.6843E+04  setid=       0
 node=    97 local x,y,z forces =   -5.4736E+03    6.1744E+03   -4.9515E+04  setid=       0
 node=    98 local x,y,z forces =   -2.1376E+03    6.8816E+03   -5.3379E+04  setid=       0
 node=    99 local x,y,z forces =    8.4722E+02    7.6051E+03   -6.8691E+04  setid=       0
 node=   100 local x,y,z forces =    2.3032E+04    3.9992E+03   -4.3353E+04  setid=       0
 node=   101 local x,y,z forces =   -1.5078E+04    3.4705E+03   -2.7566E+04  setid=       0
 node=   102 local x,y,z forces =   -5.5089E+03    7.4543E+03   -5.0426E+04  setid=       0
 node=   103 local x,y,z forces =   -2.2083E+03    8.4086E+03   -5.3721E+04  setid=       0
 node=   104 local x,y,z forces =    8.9388E+02    9.3849E+03   -6.8449E+04  setid=       0
 node=   105 local x,y,z forces =    2.2960E+04    4.9630E+03   -4.2992E+04  setid=       0
 node=   106 local x,y,z forces =   -1.5878E+04    3.8109E+03   -2.9204E+04  setid=       0
 node=   107 local x,y,z forces =   -5.6598E+03    8.2467E+03   -5.3043E+04  setid=       0
 node=   108 local x,y,z forces =   -2.4270E+03    9.4183E+03   -5.5779E+04  setid=       0
 node=   109 local x,y,z forces =    8.6970E+02    1.0647E+04   -6.9876E+04  setid=       0
 node=   110 local x,y,z forces =    2.3020E+04    5.6713E+03   -4.3390E+04  setid=       0
 node=   111 local x,y,z forces =   -1.6984E+04    4.8730E+03   -3.0578E+04  setid=       0
 node=   112 local x,y,z forces =   -5.9752E+03    1.0657E+04   -5.4662E+04  setid=       0
 node=   113 local x,y,z forces =   -2.9256E+03    1.2262E+04   -5.6439E+04  setid=       0
 node=   114 local x,y,z forces =    7.2937E+02    1.3899E+04   -6.9547E+04  setid=       0
 node=   115 local x,y,z forces =    2.3085E+04    7.4375E+03   -4.2737E+04  setid=       0
 node=   116 local x,y,z forces =   -2.0129E+04    3.3818E+03   -3.7805E+04  setid=       0
 node=   117 local x,y,z forces =   -6.9580E+03    7.6360E+03   -6.8114E+04  setid=       0
 node=   118 local x,y,z forces =   -4.3287E+03    8.9354E+03   -7.0192E+04  setid=       0
 node=   119 local x,y,z forces =   -1.0420E+02    1.0133E+04   -8.3532E+04  setid=       0
 node=   120 local x,y,z forces =    2.5235E+04    5.4815E+03   -4.9408E+04  setid=       0
 node=   121 local x,y,z forces =   -1.1461E+04    1.2053E+04   -2.4379E+04  setid=       0
 node=   122 local x,y,z forces =   -3.9523E+03    2.4956E+04   -4.5194E+04  setid=       0
 node=   123 local x,y,z forces =   -2.7641E+03    2.7279E+04   -4.7266E+04  setid=       0
 node=   124 local x,y,z forces =   -4.1958E+02    3.0741E+04   -5.4800E+04  setid=       0
 node=   125 local x,y,z forces =    1.3854E+04    1.6448E+04   -3.1304E+04  setid=       0
 node=  3186 local x,y,z forces =   -2.7421E+04    0.0000E+00    0.0000E+00  setid=       0
 node=  3190 local x,y,z forces =    2.7421E+04    0.0000E+00    0.0000E+00  setid=       0
 node=  6251 local x,y,z forces =   -1.3854E+04   -1.6448E+04    0.0000E+00  setid=       0
 node=  6252 local x,y,z forces =    4.1957E+02   -3.0741E+04    0.0000E+00  setid=       0
 node=  6253 local x,y,z forces =    2.7641E+03   -2.7279E+04    0.0000E+00  setid=       0
 node=  6254 local x,y,z forces =    3.9523E+03   -2.4956E+04    0.0000E+00  setid=       0
 node=  6255 local x,y,z forces =    1.1461E+04   -1.2053E+04    0.0000E+00  setid=       0
 node=  6256 local x,y,z forces =   -2.5235E+04   -5.4815E+03    0.0000E+00  setid=       0
 node=  6257 local x,y,z forces =    1.0419E+02   -1.0133E+04    0.0000E+00  setid=       0
 node=  6258 local x,y,z forces =    4.3287E+03   -8.9354E+03    0.0000E+00  setid=       0
 node=  6259 local x,y,z forces =    6.9580E+03   -7.6360E+03    0.0000E+00  setid=       0
 node=  6260 local x,y,z forces =    2.0129E+04   -3.3818E+03    0.0000E+00  setid=       0
 node=  6261 local x,y,z forces =   -2.3085E+04   -7.4375E+03    0.0000E+00  setid=       0
 node=  6262 local x,y,z forces =   -7.2939E+02   -1.3899E+04    0.0000E+00  setid=       0
 node=  6263 local x,y,z forces =    2.9256E+03   -1.2262E+04    0.0000E+00  setid=       0
 node=  6264 local x,y,z forces =    5.9752E+03   -1.0657E+04    0.0000E+00  setid=       0
 node=  6265 local x,y,z forces =    1.6984E+04   -4.8730E+03    0.0000E+00  setid=       0
 node=  6266 local x,y,z forces =   -2.3020E+04   -5.6713E+03    0.0000E+00  setid=       0
 node=  6267 local x,y,z forces =   -8.6971E+02   -1.0647E+04    0.0000E+00  setid=       0
 node=  6268 local x,y,z forces =    2.4270E+03   -9.4183E+03    0.0000E+00  setid=       0
 node=  6269 local x,y,z forces =    5.6598E+03   -8.2467E+03    0.0000E+00  setid=       0
 node=  6270 local x,y,z forces =    1.5878E+04   -3.8109E+03    0.0000E+00  setid=       0
 node=  6271 local x,y,z forces =   -2.2960E+04   -4.9630E+03    0.0000E+00  setid=       0
 node=  6272 local x,y,z forces =   -8.9390E+02   -9.3849E+03    0.0000E+00  setid=       0
 node=  6273 local x,y,z forces =    2.2083E+03   -8.4086E+03    0.0000E+00  setid=       0
 node=  6274 local x,y,z forces =    5.5089E+03   -7.4543E+03    0.0000E+00  setid=       0
 node=  6275 local x,y,z forces =    1.5078E+04   -3.4705E+03    0.0000E+00  setid=       0
 node=  6276 local x,y,z forces =   -2.3032E+04   -3.9992E+03    0.0000E+00  setid=       0
 node=  6277 local x,y,z forces =   -8.4723E+02   -7.6051E+03    0.0000E+00  setid=       0
 node=  6278 local x,y,z forces =    2.1377E+03   -6.8816E+03    0.0000E+00  setid=       0
 node=  6279 local x,y,z forces =    5.4736E+03   -6.1744E+03    0.0000E+00  setid=       0
 node=  6280 local x,y,z forces =    1.4604E+04   -2.9005E+03    0.0000E+00  setid=       0
 node=  6281 local x,y,z forces =   -2.3083E+04   -3.3243E+03    0.0000E+00  setid=       0
 node=  6282 local x,y,z forces =   -7.8767E+02   -6.3524E+03    0.0000E+00  setid=       0
 node=  6283 local x,y,z forces =    2.1302E+03   -5.8041E+03    0.0000E+00  setid=       0
 node=  6284 local x,y,z forces =    5.4782E+03   -5.2625E+03    0.0000E+00  setid=       0
 node=  6285 local x,y,z forces =    1.4267E+04   -2.4898E+03    0.0000E+00  setid=       0
 node=  6286 local x,y,z forces =   -2.3141E+04   -2.6404E+03    0.0000E+00  setid=       0
 node=  6287 local x,y,z forces =   -7.2712E+02   -5.0654E+03    0.0000E+00  setid=       0
 node=  6288 local x,y,z forces =    2.1547E+03   -4.6639E+03    0.0000E+00  setid=       0
 node=  6289 local x,y,z forces =    5.5062E+03   -4.2706E+03    0.0000E+00  setid=       0
 node=  6290 local x,y,z forces =    1.4047E+04   -2.0333E+03    0.0000E+00  setid=       0
 node=  6291 local x,y,z forces =   -2.3182E+04   -2.0647E+03    0.0000E+00  setid=       0
 node=  6292 local x,y,z forces =   -6.7346E+02   -3.9728E+03    0.0000E+00  setid=       0
 node=  6293 local x,y,z forces =    2.1883E+03   -3.6811E+03    0.0000E+00  setid=       0
 node=  6294 local x,y,z forces =    5.5371E+03   -3.3948E+03    0.0000E+00  setid=       0
 node=  6295 local x,y,z forces =    1.3892E+04   -1.6237E+03    0.0000E+00  setid=       0
 node=  6296 local x,y,z forces =   -2.3216E+04   -1.5056E+03    0.0000E+00  setid=       0
 node=  6297 local x,y,z forces =   -6.2975E+02   -2.9051E+03    0.0000E+00  setid=       0
 node=  6298 local x,y,z forces =    2.2217E+03   -2.7039E+03    0.0000E+00  setid=       0
 node=  6299 local x,y,z forces =    5.5659E+03   -2.5099E+03    0.0000E+00  setid=       0
 node=  6300 local x,y,z forces =    1.3792E+04   -1.2044E+03    0.0000E+00  setid=       0
 node=  6301 local x,y,z forces =   -2.3237E+04   -9.9275E+02    0.0000E+00  setid=       0
 node=  6302 local x,y,z forces =   -6.0162E+02   -1.9163E+03    0.0000E+00  setid=       0
 node=  6303 local x,y,z forces =    2.2481E+03   -1.7910E+03    0.0000E+00  setid=       0
 node=  6304 local x,y,z forces =    5.5914E+03   -1.6671E+03    0.0000E+00  setid=       0
 node=  6305 local x,y,z forces =    1.3727E+04   -8.0286E+02    0.0000E+00  setid=       0
 node=  6306 local x,y,z forces =   -2.3229E+04   -4.9003E+02    0.0000E+00  setid=       0
 node=  6307 local x,y,z forces =   -5.8905E+02   -9.4262E+02    0.0000E+00  setid=       0
 node=  6308 local x,y,z forces =    2.2653E+03   -8.8881E+02    0.0000E+00  setid=       0
 node=  6309 local x,y,z forces =    5.6119E+03   -8.2339E+02    0.0000E+00  setid=       0
 node=  6310 local x,y,z forces =    1.3670E+04   -3.9933E+02    0.0000E+00  setid=       0
 node=  6311 local x,y,z forces =   -2.3214E+04    5.7116E-10    0.0000E+00  setid=       0
 node=  6312 local x,y,z forces =   -5.8670E+02    5.8571E-10    0.0000E+00  setid=       0
 node=  6313 local x,y,z forces =    2.2712E+03    7.2760E-12    0.0000E+00  setid=       0
 node=  6314 local x,y,z forces =    5.6202E+03    2.9468E-10    0.0000E+00  setid=       0
 node=  6315 local x,y,z forces =    1.3640E+04    2.1282E-10    0.0000E+00  setid=       0
 node=  6316 local x,y,z forces =   -2.3229E+04    4.9003E+02    0.0000E+00  setid=       0
 node=  6317 local x,y,z forces =   -5.8905E+02    9.4262E+02    0.0000E+00  setid=       0
 node=  6318 local x,y,z forces =    2.2653E+03    8.8881E+02    0.0000E+00  setid=       0
 node=  6319 local x,y,z forces =    5.6119E+03    8.2339E+02    0.0000E+00  setid=       0
 node=  6320 local x,y,z forces =    1.3670E+04    3.9933E+02    0.0000E+00  setid=       0
 node=  6321 local x,y,z forces =   -2.3237E+04    9.9275E+02    0.0000E+00  setid=       0
 node=  6322 local x,y,z forces =   -6.0162E+02    1.9163E+03    0.0000E+00  setid=       0
 node=  6323 local x,y,z forces =    2.2481E+03    1.7910E+03    0.0000E+00  setid=       0
 node=  6324 local x,y,z forces =    5.5914E+03    1.6671E+03    0.0000E+00  setid=       0
 node=  6325 local x,y,z forces =    1.3727E+04    8.0286E+02    0.0000E+00  setid=       0
 node=  6326 local x,y,z forces =   -2.3216E+04    1.5056E+03    0.0000E+00  setid=       0
 node=  6327 local x,y,z forces =   -6.2975E+02    2.9051E+03    0.0000E+00  setid=       0
 node=  6328 local x,y,z forces =    2.2217E+03    2.7039E+03    0.0000E+00  setid=       0
 node=  6329 local x,y,z forces =    5.5659E+03    2.5099E+03    0.0000E+00  setid=       0
 node=  6330 local x,y,z forces =    1.3792E+04    1.2044E+03    0.0000E+00  setid=       0
 node=  6331 local x,y,z forces =   -2.3182E+04    2.0647E+03    0.0000E+00  setid=       0
 node=  6332 local x,y,z forces =   -6.7346E+02    3.9728E+03    0.0000E+00  setid=       0
 node=  6333 local x,y,z forces =    2.1883E+03    3.6811E+03    0.0000E+00  setid=       0
 node=  6334 local x,y,z forces =    5.5371E+03    3.3948E+03    0.0000E+00  setid=       0
 node=  6335 local x,y,z forces =    1.3892E+04    1.6237E+03    0.0000E+00  setid=       0
 node=  6336 local x,y,z forces =   -2.3141E+04    2.6404E+03    0.0000E+00  setid=       0
 node=  6337 local x,y,z forces =   -7.2712E+02    5.0654E+03    0.0000E+00  setid=       0
 node=  6338 local x,y,z forces =    2.1547E+03    4.6639E+03    0.0000E+00  setid=       0
 node=  6339 local x,y,z forces =    5.5062E+03    4.2706E+03    0.0000E+00  setid=       0
 node=  6340 local x,y,z forces =    1.4047E+04    2.0333E+03    0.0000E+00  setid=       0
 node=  6341 local x,y,z forces =   -2.3083E+04    3.3243E+03    0.0000E+00  setid=       0
 node=  6342 local x,y,z forces =   -7.8767E+02    6.3524E+03    0.0000E+00  setid=       0
 node=  6343 local x,y,z forces =    2.1302E+03    5.8041E+03    0.0000E+00  setid=       0
 node=  6344 local x,y,z forces =    5.4782E+03    5.2625E+03    0.0000E+00  setid=       0
 node=  6345 local x,y,z forces =    1.4267E+04    2.4898E+03    0.0000E+00  setid=       0
 node=  6346 local x,y,z forces =   -2.3032E+04    3.9992E+03    0.0000E+00  setid=       0
 node=  6347 local x,y,z forces =   -8.4723E+02    7.6051E+03    0.0000E+00  setid=       0
 node=  6348 local x,y,z forces =    2.1377E+03    6.8816E+03    0.0000E+00  setid=       0
 node=  6349 local x,y,z forces =    5.4736E+03    6.1744E+03    0.0000E+00  setid=       0
 node=  6350 local x,y,z forces =    1.4604E+04    2.9005E+03    0.0000E+00  setid=       0
 node=  6351 local x,y,z forces =   -2.2960E+04    4.9630E+03    0.0000E+00  setid=       0
 node=  6352 local x,y,z forces =   -8.9390E+02    9.3849E+03    0.0000E+00  setid=       0
 node=  6353 local x,y,z forces =    2.2083E+03    8.4086E+03    0.0000E+00  setid=       0
 node=  6354 local x,y,z forces =    5.5089E+03    7.4543E+03    0.0000E+00  setid=       0
 node=  6355 local x,y,z forces =    1.5078E+04    3.4705E+03    0.0000E+00  setid=       0
 node=  6356 local x,y,z forces =   -2.3020E+04    5.6713E+03    0.0000E+00  setid=       0
 node=  6357 local x,y,z forces =   -8.6971E+02    1.0647E+04    0.0000E+00  setid=       0
 node=  6358 local x,y,z forces =    2.4270E+03    9.4183E+03    0.0000E+00  setid=       0
 node=  6359 local x,y,z forces =    5.6598E+03    8.2467E+03    0.0000E+00  setid=       0
 node=  6360 local x,y,z forces =    1.5878E+04    3.8109E+03    0.0000E+00  setid=       0
 node=  6361 local x,y,z forces =   -2.3085E+04    7.4375E+03    0.0000E+00  setid=       0
 node=  6362 local x,y,z forces =   -7.2939E+02    1.3899E+04    0.0000E+00  setid=       0
 node=  6363 local x,y,z forces =    2.9256E+03    1.2262E+04    0.0000E+00  setid=       0
 node=  6364 local x,y,z forces =    5.9752E+03    1.0657E+04    0.0000E+00  setid=       0
 node=  6365 local x,y,z forces =    1.6984E+04    4.8730E+03    0.0000E+00  setid=       0
 node=  6366 local x,y,z forces =   -2.5235E+04    5.4815E+03    0.0000E+00  setid=       0
 node=  6367 local x,y,z forces =    1.0419E+02    1.0133E+04    0.0000E+00  setid=       0
 node=  6368 local x,y,z forces =    4.3287E+03    8.9354E+03    0.0000E+00  setid=       0
 node=  6369 local x,y,z forces =    6.9580E+03    7.6360E+03    0.0000E+00  setid=       0
 node=  6370 local x,y,z forces =    2.0129E+04    3.3818E+03    0.0000E+00  setid=       0
 node=  6371 local x,y,z forces =   -1.3854E+04    1.6448E+04    0.0000E+00  setid=       0
 node=  6372 local x,y,z forces =    4.1957E+02    3.0741E+04    0.0000E+00  setid=       0
 node=  6373 local x,y,z forces =    2.7641E+03    2.7279E+04    0.0000E+00  setid=       0
 node=  6374 local x,y,z forces =    3.9523E+03    2.4956E+04    0.0000E+00  setid=       0
 node=  6375 local x,y,z forces =    1.1461E+04    1.2053E+04    0.0000E+00  setid=       0
             force resultants   =    3.0522E-03   -5.1041E-09   -6.0968E+06
 output at time =   1.50000E-03
 node=     1 local x,y,z forces =   -1.5822E+04   -1.5676E+04   -3.2775E+04  setid=       0
 node=     2 local x,y,z forces =   -8.0682E+03   -3.4054E+04   -6.2187E+04  setid=       0
 node=     3 local x,y,z forces =   -6.9808E+03   -4.0365E+04   -6.9960E+04  setid=       0
 node=     4 local x,y,z forces =   -2.8610E+03   -4.8370E+04   -8.5847E+04  setid=       0
 node=     5 local x,y,z forces =    2.1637E+04   -2.6514E+04   -4.9692E+04  setid=       0
 node=     6 local x,y,z forces =   -2.7349E+04   -3.9361E+03   -5.0458E+04  setid=       0
 node=     7 local x,y,z forces =   -1.3861E+04   -1.0004E+04   -9.3315E+04  setid=       0
 node=     8 local x,y,z forces =   -1.0923E+04   -1.3216E+04   -1.0388E+05  setid=       0
 node=     9 local x,y,z forces =   -3.7566E+03   -1.6285E+04   -1.3116E+05  setid=       0
 node=    10 local x,y,z forces =    3.9779E+04   -9.1922E+03   -7.8698E+04  setid=       0
 node=    11 local x,y,z forces =   -2.2169E+04   -5.8813E+03   -3.9444E+04  setid=       0
 node=    12 local x,y,z forces =   -1.1453E+04   -1.4065E+04   -7.3652E+04  setid=       0
 node=    13 local x,y,z forces =   -7.3560E+03   -1.8148E+04   -8.3515E+04  setid=       0
 node=    14 local x,y,z forces =   -1.5672E+03   -2.2284E+04   -1.1020E+05  setid=       0
 node=    15 local x,y,z forces =    3.7131E+04   -1.2352E+04   -6.9137E+04  setid=       0
 node=    16 local x,y,z forces =   -1.9973E+04   -4.6564E+03   -3.6331E+04  setid=       0
 node=    17 local x,y,z forces =   -1.0742E+04   -1.0913E+04   -7.0216E+04  setid=       0
 node=    18 local x,y,z forces =   -6.0830E+03   -1.3938E+04   -8.2540E+04  setid=       0
 node=    19 local x,y,z forces =   -1.1228E+03   -1.7053E+04   -1.1173E+05  setid=       0
 node=    20 local x,y,z forces =    3.7597E+04   -9.3868E+03   -7.1196E+04  setid=       0
 node=    21 local x,y,z forces =   -1.8383E+04   -4.3399E+03   -3.3221E+04  setid=       0
 node=    22 local x,y,z forces =   -1.0421E+04   -9.9829E+03   -6.5681E+04  setid=       0
 node=    23 local x,y,z forces =   -5.5165E+03   -1.2445E+04   -7.9492E+04  setid=       0
 node=    24 local x,y,z forces =   -9.9229E+02   -1.4944E+04   -1.1027E+05  setid=       0
 node=    25 local x,y,z forces =    3.7919E+04   -8.1503E+03   -7.1299E+04  setid=       0
 node=    26 local x,y,z forces =   -1.7376E+04   -3.6996E+03   -3.1553E+04  setid=       0
 node=    27 local x,y,z forces =   -1.0372E+04   -8.3497E+03   -6.3695E+04  setid=       0
 node=    28 local x,y,z forces =   -5.3292E+03   -1.0185E+04   -7.8986E+04  setid=       0
 node=    29 local x,y,z forces =   -1.0681E+03   -1.2048E+04   -1.1127E+05  setid=       0
 node=    30 local x,y,z forces =    3.8333E+04   -6.5187E+03   -7.2439E+04  setid=       0
 node=    31 local x,y,z forces =   -1.6657E+04   -3.2312E+03   -3.0152E+04  setid=       0
 node=    32 local x,y,z forces =   -1.0410E+04   -7.1827E+03   -6.1790E+04  setid=       0
 node=    33 local x,y,z forces =   -5.3041E+03   -8.5909E+03   -7.8090E+04  setid=       0
 node=    34 local x,y,z forces =   -1.1903E+03   -1.0011E+04   -1.1141E+05  setid=       0
 node=    35 local x,y,z forces =    3.8631E+04   -5.3795E+03   -7.2942E+04  setid=       0
 node=    36 local x,y,z forces =   -1.6171E+04   -2.6765E+03   -2.9280E+04  setid=       0
 node=    37 local x,y,z forces =   -1.0498E+04   -5.8743E+03   -6.0711E+04  setid=       0
 node=    38 local x,y,z forces =   -5.3623E+03   -6.9035E+03   -7.7844E+04  setid=       0
 node=    39 local x,y,z forces =   -1.3282E+03   -7.9464E+03   -1.1201E+05  setid=       0
 node=    40 local x,y,z forces =    3.8878E+04   -4.2450E+03   -7.3561E+04  setid=       0
 node=    41 local x,y,z forces =   -1.5829E+04   -2.1601E+03   -2.8607E+04  setid=       0
 node=    42 local x,y,z forces =   -1.0588E+04   -4.6974E+03   -5.9812E+04  setid=       0
 node=    43 local x,y,z forces =   -5.4448E+03   -5.4489E+03   -7.7517E+04  setid=       0
 node=    44 local x,y,z forces =   -1.4534E+03   -6.2094E+03   -1.1227E+05  setid=       0
 node=    45 local x,y,z forces =    3.9053E+04   -3.3022E+03   -7.3910E+04  setid=       0
 node=    46 local x,y,z forces =   -1.5601E+04   -1.6159E+03   -2.8180E+04  setid=       0
 node=    47 local x,y,z forces =   -1.0669E+04   -3.4898E+03   -5.9262E+04  setid=       0
 node=    48 local x,y,z forces =   -5.5282E+03   -4.0027E+03   -7.7402E+04  setid=       0
 node=    49 local x,y,z forces =   -1.5577E+03   -4.5269E+03   -1.1259E+05  setid=       0
 node=    50 local x,y,z forces =    3.9183E+04   -2.3977E+03   -7.4225E+04  setid=       0
 node=    51 local x,y,z forces =   -1.5453E+04   -1.0826E+03   -2.7886E+04  setid=       0
 node=    52 local x,y,z forces =   -1.0735E+04   -2.3250E+03   -5.8867E+04  setid=       0
 node=    53 local x,y,z forces =   -5.5945E+03   -2.6512E+03   -7.7280E+04  setid=       0
 node=    54 local x,y,z forces =   -1.6291E+03   -2.9803E+03   -1.1274E+05  setid=       0
 node=    55 local x,y,z forces =    3.9266E+04   -1.5765E+03   -7.4406E+04  setid=       0
 node=    56 local x,y,z forces =   -1.5343E+04   -5.4046E+02   -2.7696E+04  setid=       0
 node=    57 local x,y,z forces =   -1.0783E+04   -1.1509E+03   -5.8726E+04  setid=       0
 node=    58 local x,y,z forces =   -5.6371E+03   -1.3155E+03   -7.7165E+04  setid=       0
 node=    59 local x,y,z forces =   -1.6673E+03   -1.4650E+03   -1.1294E+05  setid=       0
 node=    60 local x,y,z forces =    3.9287E+04   -7.7661E+02   -7.4490E+04  setid=       0
 node=    61 local x,y,z forces =   -1.5290E+04    4.3656E-11   -2.7608E+04  setid=       0
 node=    62 local x,y,z forces =   -1.0800E+04   -8.7311E-11   -5.8718E+04  setid=       0
 node=    63 local x,y,z forces =   -5.6517E+03   -3.6380E-11   -7.7071E+04  setid=       0
 node=    64 local x,y,z forces =   -1.6774E+03    4.3656E-11   -1.1303E+05  setid=       0
 node=    65 local x,y,z forces =    3.9277E+04    1.4552E-11   -7.4489E+04  setid=       0
 node=    66 local x,y,z forces =   -1.5343E+04    5.4046E+02   -2.7696E+04  setid=       0
 node=    67 local x,y,z forces =   -1.0783E+04    1.1509E+03   -5.8726E+04  setid=       0
 node=    68 local x,y,z forces =   -5.6371E+03    1.3155E+03   -7.7165E+04  setid=       0
 node=    69 local x,y,z forces =   -1.6673E+03    1.4650E+03   -1.1294E+05  setid=       0
 node=    70 local x,y,z forces =    3.9287E+04    7.7661E+02   -7.4490E+04  setid=       0
 node=    71 local x,y,z forces =   -1.5453E+04    1.0826E+03   -2.7886E+04  setid=       0
 node=    72 local x,y,z forces =   -1.0735E+04    2.3250E+03   -5.8867E+04  setid=       0
 node=    73 local x,y,z forces =   -5.5945E+03    2.6512E+03   -7.7280E+04  setid=       0
 node=    74 local x,y,z forces =   -1.6291E+03    2.9803E+03   -1.1274E+05  setid=       0
 node=    75 local x,y,z forces =    3.9266E+04    1.5765E+03   -7.4406E+04  setid=       0
 node=    76 local x,y,z forces =   -1.5601E+04    1.6159E+03   -2.8180E+04  setid=       0
 node=    77 local x,y,z forces =   -1.0669E+04    3.4898E+03   -5.9262E+04  setid=       0
 node=    78 local x,y,z forces =   -5.5282E+03    4.0027E+03   -7.7402E+04  setid=       0
 node=    79 local x,y,z forces =   -1.5577E+03    4.5269E+03   -1.1259E+05  setid=       0
 node=    80 local x,y,z forces =    3.9183E+04    2.3977E+03   -7.4225E+04  setid=       0
 node=    81 local x,y,z forces =   -1.5829E+04    2.1601E+03   -2.8607E+04  setid=       0
 node=    82 local x,y,z forces =   -1.0588E+04    4.6974E+03   -5.9812E+04  setid=       0
 node=    83 local x,y,z forces =   -5.4448E+03    5.4489E+03   -7.7517E+04  setid=       0
 node=    84 local x,y,z forces =   -1.4534E+03    6.2094E+03   -1.1227E+05  setid=       0
 node=    85 local x,y,z forces =    3.9053E+04    3.3022E+03   -7.3910E+04  setid=       0
 node=    86 local x,y,z forces =   -1.6171E+04    2.6765E+03   -2.9280E+04  setid=       0
 node=    87 local x,y,z forces =   -1.0498E+04    5.8743E+03   -6.0711E+04  setid=       0
 node=    88 local x,y,z forces =   -5.3623E+03    6.9035E+03   -7.7844E+04  setid=       0
 node=    89 local x,y,z forces =   -1.3282E+03    7.9464E+03   -1.1201E+05  setid=       0
 node=    90 local x,y,z forces =    3.8878E+04    4.2450E+03   -7.3561E+04  setid=       0
 node=    91 local x,y,z forces =   -1.6657E+04    3.2312E+03   -3.0152E+04  setid=       0
 node=    92 local x,y,z forces =   -1.0410E+04    7.1827E+03   -6.1790E+04  setid=       0
 node=    93 local x,y,z forces =   -5.3041E+03    8.5909E+03   -7.8090E+04  setid=       0
 node=    94 local x,y,z forces =   -1.1903E+03    1.0011E+04   -1.1141E+05  setid=       0
[...]
 node=    39 local x,y,z forces =   -2.6221E+05   -6.8268E+04   -1.2639E+06  setid=       0
 node=    40 local x,y,z forces =    5.7749E+05   -4.7905E+04   -1.1310E+06  setid=       0
 node=    41 local x,y,z forces =    4.5637E+05    1.7724E+04    8.9760E+05  setid=       0
 node=    42 local x,y,z forces =   -2.6771E+05    2.1438E+04    1.0885E+06  setid=       0
 node=    43 local x,y,z forces =   -2.5043E+05   -1.3116E+04   -1.0288E+05  setid=       0
 node=    44 local x,y,z forces =   -2.6471E+05   -4.6167E+04   -1.2803E+06  setid=       0
 node=    45 local x,y,z forces =    5.9402E+05   -2.9889E+04   -1.1419E+06  setid=       0
 node=    46 local x,y,z forces =    4.6740E+05    1.6475E+04    9.3538E+05  setid=       0
 node=    47 local x,y,z forces =   -2.6932E+05    1.6261E+04    1.1197E+06  setid=       0
 node=    48 local x,y,z forces =   -2.5269E+05   -9.3250E+03   -1.0349E+05  setid=       0
 node=    49 local x,y,z forces =   -2.7285E+05   -3.6915E+04   -1.3184E+06  setid=       0
 node=    50 local x,y,z forces =    6.0016E+05   -2.7487E+04   -1.1846E+06  setid=       0
 node=    51 local x,y,z forces =    4.6742E+05    6.0043E+03    9.1872E+05  setid=       0
 node=    52 local x,y,z forces =   -2.7490E+05    9.1968E+03    1.1215E+06  setid=       0
 node=    53 local x,y,z forces =   -2.5759E+05   -6.8874E+03   -1.0535E+05  setid=       0
 node=    54 local x,y,z forces =   -2.7511E+05   -2.1066E+04   -1.3173E+06  setid=       0
 node=    55 local x,y,z forces =    6.1096E+05   -1.0937E+04   -1.1683E+06  setid=       0
 node=    56 local x,y,z forces =    4.7115E+05    5.0214E+03    9.5109E+05  setid=       0
 node=    57 local x,y,z forces =   -2.6776E+05    3.1950E+03    1.1470E+06  setid=       0
 node=    58 local x,y,z forces =   -2.6476E+05   -2.5138E+03   -1.1737E+05  setid=       0
 node=    59 local x,y,z forces =   -2.7340E+05   -1.2240E+04   -1.3282E+06  setid=       0
 node=    60 local x,y,z forces =    6.1394E+05   -9.1026E+03   -1.2183E+06  setid=       0
 node=    61 local x,y,z forces =    4.6022E+05    1.0477E-09    9.1501E+05  setid=       0
 node=    62 local x,y,z forces =   -2.7104E+05    4.3656E-10    1.1512E+06  setid=       0
 node=    63 local x,y,z forces =   -2.6496E+05   -1.4552E-09   -1.2772E+05  setid=       0
 node=    64 local x,y,z forces =   -2.7637E+05    1.9791E-09   -1.3095E+06  setid=       0
 node=    65 local x,y,z forces =    6.2120E+05   -6.9849E-10   -1.1847E+06  setid=       0
 node=    66 local x,y,z forces =    4.7115E+05   -5.0214E+03    9.5109E+05  setid=       0
 node=    67 local x,y,z forces =   -2.6776E+05   -3.1950E+03    1.1470E+06  setid=       0
 node=    68 local x,y,z forces =   -2.6476E+05    2.5138E+03   -1.1737E+05  setid=       0
 node=    69 local x,y,z forces =   -2.7340E+05    1.2240E+04   -1.3282E+06  setid=       0
 node=    70 local x,y,z forces =    6.1394E+05    9.1026E+03   -1.2183E+06  setid=       0
 node=    71 local x,y,z forces =    4.6742E+05   -6.0043E+03    9.1872E+05  setid=       0
 node=    72 local x,y,z forces =   -2.7490E+05   -9.1968E+03    1.1215E+06  setid=       0
 node=    73 local x,y,z forces =   -2.5759E+05    6.8874E+03   -1.0535E+05  setid=       0
 node=    74 local x,y,z forces =   -2.7511E+05    2.1066E+04   -1.3173E+06  setid=       0
 node=    75 local x,y,z forces =    6.1096E+05    1.0937E+04   -1.1683E+06  setid=       0
 node=    76 local x,y,z forces =    4.6740E+05   -1.6475E+04    9.3538E+05  setid=       0
 node=    77 local x,y,z forces =   -2.6932E+05   -1.6261E+04    1.1197E+06  setid=       0
 node=    78 local x,y,z forces =   -2.5269E+05    9.3250E+03   -1.0349E+05  setid=       0
 node=    79 local x,y,z forces =   -2.7285E+05    3.6915E+04   -1.3184E+06  setid=       0
 node=    80 local x,y,z forces =    6.0016E+05    2.7487E+04   -1.1846E+06  setid=       0
 node=    81 local x,y,z forces =    4.5637E+05   -1.7724E+04    8.9760E+05  setid=       0
 node=    82 local x,y,z forces =   -2.6771E+05   -2.1438E+04    1.0885E+06  setid=       0
 node=    83 local x,y,z forces =   -2.5043E+05    1.3116E+04   -1.0288E+05  setid=       0
 node=    84 local x,y,z forces =   -2.6471E+05    4.6167E+04   -1.2803E+06  setid=       0
 node=    85 local x,y,z forces =    5.9402E+05    2.9889E+04   -1.1419E+06  setid=       0
 node=    86 local x,y,z forces =    4.4824E+05   -3.1487E+04    8.9239E+05  setid=       0
 node=    87 local x,y,z forces =   -2.6106E+05   -3.5098E+04    1.0738E+06  setid=       0
 node=    88 local x,y,z forces =   -2.4554E+05    1.5723E+04   -1.0122E+05  setid=       0
 node=    89 local x,y,z forces =   -2.6221E+05    6.8268E+04   -1.2639E+06  setid=       0
 node=    90 local x,y,z forces =    5.7749E+05    4.7905E+04   -1.1310E+06  setid=       0
 node=    91 local x,y,z forces =    4.3083E+05   -3.8875E+04    8.4798E+05  setid=       0
 node=    92 local x,y,z forces =   -2.5886E+05   -4.5619E+04    1.0259E+06  setid=       0
 node=    93 local x,y,z forces =   -2.4345E+05    1.9532E+04   -9.8944E+04  setid=       0
 node=    94 local x,y,z forces =   -2.5314E+05    8.4915E+04   -1.2113E+06  setid=       0
 node=    95 local x,y,z forces =    5.5980E+05    5.8142E+04   -1.0787E+06  setid=       0
 node=    96 local x,y,z forces =    4.1081E+05   -5.6484E+04    8.1542E+05  setid=       0
 node=    97 local x,y,z forces =   -2.5560E+05   -6.5797E+04    9.8617E+05  setid=       0
 node=    98 local x,y,z forces =   -2.4446E+05    2.2300E+04   -9.7432E+04  setid=       0
 node=    99 local x,y,z forces =   -2.5001E+05    1.1222E+05   -1.1687E+06  setid=       0
 node=   100 local x,y,z forces =    5.3179E+05    7.8816E+04   -1.0364E+06  setid=       0
 node=   101 local x,y,z forces =    3.7904E+05   -7.4751E+04    7.4895E+05  setid=       0
 node=   102 local x,y,z forces =   -2.5968E+05   -8.8179E+04    9.1239E+05  setid=       0
 node=   103 local x,y,z forces =   -2.5347E+05    2.6289E+04   -9.4422E+04  setid=       0
 node=   104 local x,y,z forces =   -2.4479E+05    1.4323E+05   -1.0903E+06  setid=       0
 node=   105 local x,y,z forces =    4.9645E+05    1.0114E+05   -9.5666E+05  setid=       0
 node=   106 local x,y,z forces =    3.3906E+05   -9.6443E+04    6.8201E+05  setid=       0
 node=   107 local x,y,z forces =   -2.7314E+05   -1.1499E+05    8.4104E+05  setid=       0
 node=   108 local x,y,z forces =   -2.8017E+05    2.7820E+04   -9.5743E+04  setid=       0
 node=   109 local x,y,z forces =   -2.5418E+05    1.7420E+05   -1.0233E+06  setid=       0
 node=   110 local x,y,z forces =    4.4674E+05    1.2498E+05   -8.7747E+05  setid=       0
 node=   111 local x,y,z forces =    2.7905E+05   -1.2989E+05    5.6909E+05  setid=       0
 node=   112 local x,y,z forces =   -3.1083E+05   -1.5284E+05    7.2529E+05  setid=       0
 node=   113 local x,y,z forces =   -3.3891E+05    3.4623E+04   -9.1496E+04  setid=       0
 node=   114 local x,y,z forces =   -2.7107E+05    2.2756E+05   -9.0414E+05  setid=       0
 node=   115 local x,y,z forces =    3.8378E+05    1.6706E+05   -7.4245E+05  setid=       0
 node=   116 local x,y,z forces =    2.2471E+05   -1.0409E+05    5.2142E+05  setid=       0
 node=   117 local x,y,z forces =   -4.2193E+05   -1.2632E+05    7.2124E+05  setid=       0
 node=   118 local x,y,z forces =   -5.0505E+05    1.3290E+04   -1.2509E+05  setid=       0
 node=   119 local x,y,z forces =   -3.7576E+05    1.6424E+05   -9.7069E+05  setid=       0
 node=   120 local x,y,z forces =    3.1942E+05    1.3698E+05   -7.2148E+05  setid=       0
 node=   121 local x,y,z forces =    1.0083E+05   -2.0979E+05    3.0628E+05  setid=       0
 node=   122 local x,y,z forces =   -2.6204E+05   -2.6234E+05    4.3903E+05  setid=       0
 node=   123 local x,y,z forces =   -3.2280E+05    6.3775E+04   -8.9621E+04  setid=       0
 node=   124 local x,y,z forces =   -2.3431E+05    3.8159E+05   -6.2213E+05  setid=       0
 node=   125 local x,y,z forces =    1.5216E+05    2.7526E+05   -4.4052E+05  setid=       0
 node=  3186 local x,y,z forces =    1.0987E+07    0.0000E+00    0.0000E+00  setid=       0
 node=  3190 local x,y,z forces =   -1.0987E+07    0.0000E+00    0.0000E+00  setid=       0
 node=  6251 local x,y,z forces =   -1.5215E+05   -2.7525E+05    0.0000E+00  setid=       0
 node=  6252 local x,y,z forces =    2.3431E+05   -3.8157E+05    0.0000E+00  setid=       0
 node=  6253 local x,y,z forces =    3.2280E+05   -6.3753E+04    0.0000E+00  setid=       0
 node=  6254 local x,y,z forces =    2.6204E+05    2.6236E+05    0.0000E+00  setid=       0
 node=  6255 local x,y,z forces =   -1.0084E+05    2.0980E+05    0.0000E+00  setid=       0
 node=  6256 local x,y,z forces =   -3.1940E+05   -1.3698E+05    0.0000E+00  setid=       0
 node=  6257 local x,y,z forces =    3.7576E+05   -1.6424E+05    0.0000E+00  setid=       0
 node=  6258 local x,y,z forces =    5.0505E+05   -1.3290E+04    0.0000E+00  setid=       0
 node=  6259 local x,y,z forces =    4.2193E+05    1.2632E+05    0.0000E+00  setid=       0
 node=  6260 local x,y,z forces =   -2.2473E+05    1.0409E+05    0.0000E+00  setid=       0
 node=  6261 local x,y,z forces =   -3.8375E+05   -1.6706E+05    0.0000E+00  setid=       0
 node=  6262 local x,y,z forces =    2.7107E+05   -2.2756E+05    0.0000E+00  setid=       0
 node=  6263 local x,y,z forces =    3.3891E+05   -3.4623E+04    0.0000E+00  setid=       0
 node=  6264 local x,y,z forces =    3.1083E+05    1.5284E+05    0.0000E+00  setid=       0
 node=  6265 local x,y,z forces =   -2.7907E+05    1.2989E+05    0.0000E+00  setid=       0
 node=  6266 local x,y,z forces =   -4.4672E+05   -1.2498E+05    0.0000E+00  setid=       0
 node=  6267 local x,y,z forces =    2.5418E+05   -1.7420E+05    0.0000E+00  setid=       0
 node=  6268 local x,y,z forces =    2.8017E+05   -2.7820E+04    0.0000E+00  setid=       0
 node=  6269 local x,y,z forces =    2.7314E+05    1.1499E+05    0.0000E+00  setid=       0
 node=  6270 local x,y,z forces =   -3.3908E+05    9.6443E+04    0.0000E+00  setid=       0
 node=  6271 local x,y,z forces =   -4.9643E+05   -1.0114E+05    0.0000E+00  setid=       0
 node=  6272 local x,y,z forces =    2.4479E+05   -1.4323E+05    0.0000E+00  setid=       0
 node=  6273 local x,y,z forces =    2.5347E+05   -2.6289E+04    0.0000E+00  setid=       0
 node=  6274 local x,y,z forces =    2.5968E+05    8.8179E+04    0.0000E+00  setid=       0
 node=  6275 local x,y,z forces =   -3.7906E+05    7.4751E+04    0.0000E+00  setid=       0
 node=  6276 local x,y,z forces =   -5.3177E+05   -7.8816E+04    0.0000E+00  setid=       0
 node=  6277 local x,y,z forces =    2.5001E+05   -1.1222E+05    0.0000E+00  setid=       0
 node=  6278 local x,y,z forces =    2.4446E+05   -2.2300E+04    0.0000E+00  setid=       0
 node=  6279 local x,y,z forces =    2.5560E+05    6.5797E+04    0.0000E+00  setid=       0
 node=  6280 local x,y,z forces =   -4.1083E+05    5.6484E+04    0.0000E+00  setid=       0
 node=  6281 local x,y,z forces =   -5.5978E+05   -5.8142E+04    0.0000E+00  setid=       0
 node=  6282 local x,y,z forces =    2.5314E+05   -8.4915E+04    0.0000E+00  setid=       0
 node=  6283 local x,y,z forces =    2.4345E+05   -1.9532E+04    0.0000E+00  setid=       0
 node=  6284 local x,y,z forces =    2.5886E+05    4.5619E+04    0.0000E+00  setid=       0
 node=  6285 local x,y,z forces =   -4.3086E+05    3.8875E+04    0.0000E+00  setid=       0
 node=  6286 local x,y,z forces =   -5.7746E+05   -4.7906E+04    0.0000E+00  setid=       0
 node=  6287 local x,y,z forces =    2.6221E+05   -6.8268E+04    0.0000E+00  setid=       0
 node=  6288 local x,y,z forces =    2.4554E+05   -1.5723E+04    0.0000E+00  setid=       0
 node=  6289 local x,y,z forces =    2.6106E+05    3.5098E+04    0.0000E+00  setid=       0
 node=  6290 local x,y,z forces =   -4.4826E+05    3.1487E+04    0.0000E+00  setid=       0
 node=  6291 local x,y,z forces =   -5.9400E+05   -2.9889E+04    0.0000E+00  setid=       0
 node=  6292 local x,y,z forces =    2.6471E+05   -4.6167E+04    0.0000E+00  setid=       0
 node=  6293 local x,y,z forces =    2.5043E+05   -1.3116E+04    0.0000E+00  setid=       0
 node=  6294 local x,y,z forces =    2.6771E+05    2.1438E+04    0.0000E+00  setid=       0
 node=  6295 local x,y,z forces =   -4.5639E+05    1.7724E+04    0.0000E+00  setid=       0
 node=  6296 local x,y,z forces =   -6.0014E+05   -2.7487E+04    0.0000E+00  setid=       0
 node=  6297 local x,y,z forces =    2.7285E+05   -3.6915E+04    0.0000E+00  setid=       0
 node=  6298 local x,y,z forces =    2.5269E+05   -9.3250E+03    0.0000E+00  setid=       0
 node=  6299 local x,y,z forces =    2.6932E+05    1.6261E+04    0.0000E+00  setid=       0
 node=  6300 local x,y,z forces =   -4.6742E+05    1.6475E+04    0.0000E+00  setid=       0
 node=  6301 local x,y,z forces =   -6.1094E+05   -1.0937E+04    0.0000E+00  setid=       0
 node=  6302 local x,y,z forces =    2.7511E+05   -2.1066E+04    0.0000E+00  setid=       0
 node=  6303 local x,y,z forces =    2.5759E+05   -6.8874E+03    0.0000E+00  setid=       0
 node=  6304 local x,y,z forces =    2.7490E+05    9.1968E+03    0.0000E+00  setid=       0
 node=  6305 local x,y,z forces =   -4.6744E+05    6.0043E+03    0.0000E+00  setid=       0
 node=  6306 local x,y,z forces =   -6.1392E+05   -9.1026E+03    0.0000E+00  setid=       0
 node=  6307 local x,y,z forces =    2.7340E+05   -1.2240E+04    0.0000E+00  setid=       0
 node=  6308 local x,y,z forces =    2.6476E+05   -2.5138E+03    0.0000E+00  setid=       0
 node=  6309 local x,y,z forces =    2.6776E+05    3.1950E+03    0.0000E+00  setid=       0
 node=  6310 local x,y,z forces =   -4.7117E+05    5.0214E+03    0.0000E+00  setid=       0
 node=  6311 local x,y,z forces =   -6.2118E+05    2.6776E-09    0.0000E+00  setid=       0
 node=  6312 local x,y,z forces =    2.7637E+05    9.3132E-10    0.0000E+00  setid=       0
 node=  6313 local x,y,z forces =    2.6496E+05   -1.1350E-09    0.0000E+00  setid=       0
 node=  6314 local x,y,z forces =    2.7104E+05   -1.5134E-09    0.0000E+00  setid=       0
 node=  6315 local x,y,z forces =   -4.6024E+05   -2.7940E-09    0.0000E+00  setid=       0
 node=  6316 local x,y,z forces =   -6.1392E+05    9.1026E+03    0.0000E+00  setid=       0
 node=  6317 local x,y,z forces =    2.7340E+05    1.2240E+04    0.0000E+00  setid=       0
 node=  6318 local x,y,z forces =    2.6476E+05    2.5138E+03    0.0000E+00  setid=       0
 node=  6319 local x,y,z forces =    2.6776E+05   -3.1950E+03    0.0000E+00  setid=       0
 node=  6320 local x,y,z forces =   -4.7117E+05   -5.0214E+03    0.0000E+00  setid=       0
 node=  6321 local x,y,z forces =   -6.1094E+05    1.0937E+04    0.0000E+00  setid=       0
 node=  6322 local x,y,z forces =    2.7511E+05    2.1066E+04    0.0000E+00  setid=       0
 node=  6323 local x,y,z forces =    2.5759E+05    6.8874E+03    0.0000E+00  setid=       0
 node=  6324 local x,y,z forces =    2.7490E+05   -9.1968E+03    0.0000E+00  setid=       0
 node=  6325 local x,y,z forces =   -4.6744E+05   -6.0043E+03    0.0000E+00  setid=       0
 node=  6326 local x,y,z forces =   -6.0014E+05    2.7487E+04    0.0000E+00  setid=       0
 node=  6327 local x,y,z forces =    2.7285E+05    3.6915E+04    0.0000E+00  setid=       0
 node=  6328 local x,y,z forces =    2.5269E+05    9.3250E+03    0.0000E+00  setid=       0
 node=  6329 local x,y,z forces =    2.6932E+05   -1.6261E+04    0.0000E+00  setid=       0
 node=  6330 local x,y,z forces =   -4.6742E+05   -1.6475E+04    0.0000E+00  setid=       0
 node=  6331 local x,y,z forces =   -5.9400E+05    2.9889E+04    0.0000E+00  setid=       0
 node=  6332 local x,y,z forces =    2.6471E+05    4.6167E+04    0.0000E+00  setid=       0
 node=  6333 local x,y,z forces =    2.5043E+05    1.3116E+04    0.0000E+00  setid=       0
 node=  6334 local x,y,z forces =    2.6771E+05   -2.1438E+04    0.0000E+00  setid=       0
 node=  6335 local x,y,z forces =   -4.5639E+05   -1.7724E+04    0.0000E+00  setid=       0
 node=  6336 local x,y,z forces =   -5.7746E+05    4.7906E+04    0.0000E+00  setid=       0
 node=  6337 local x,y,z forces =    2.6221E+05    6.8268E+04    0.0000E+00  setid=       0
 node=  6338 local x,y,z forces =    2.4554E+05    1.5723E+04    0.0000E+00  setid=       0
 node=  6339 local x,y,z forces =    2.6106E+05   -3.5098E+04    0.0000E+00  setid=       0
 node=  6340 local x,y,z forces =   -4.4826E+05   -3.1487E+04    0.0000E+00  setid=       0
 node=  6341 local x,y,z forces =   -5.5978E+05    5.8142E+04    0.0000E+00  setid=       0
 node=  6342 local x,y,z forces =    2.5314E+05    8.4915E+04    0.0000E+00  setid=       0
 node=  6343 local x,y,z forces =    2.4345E+05    1.9532E+04    0.0000E+00  setid=       0
 node=  6344 local x,y,z forces =    2.5886E+05   -4.5619E+04    0.0000E+00  setid=       0
 node=  6345 local x,y,z forces =   -4.3086E+05   -3.8875E+04    0.0000E+00  setid=       0
 node=  6346 local x,y,z forces =   -5.3177E+05    7.8816E+04    0.0000E+00  setid=       0
 node=  6347 local x,y,z forces =    2.5001E+05    1.1222E+05    0.0000E+00  setid=       0
 node=  6348 local x,y,z forces =    2.4446E+05    2.2300E+04    0.0000E+00  setid=       0
 node=  6349 local x,y,z forces =    2.5560E+05   -6.5797E+04    0.0000E+00  setid=       0
 node=  6350 local x,y,z forces =   -4.1083E+05   -5.6484E+04    0.0000E+00  setid=       0
 node=  6351 local x,y,z forces =   -4.9643E+05    1.0114E+05    0.0000E+00  setid=       0
 node=  6352 local x,y,z forces =    2.4479E+05    1.4323E+05    0.0000E+00  setid=       0
 node=  6353 local x,y,z forces =    2.5347E+05    2.6289E+04    0.0000E+00  setid=       0
 node=  6354 local x,y,z forces =    2.5968E+05   -8.8179E+04    0.0000E+00  setid=       0
 node=  6355 local x,y,z forces =   -3.7906E+05   -7.4751E+04    0.0000E+00  setid=       0
 node=  6356 local x,y,z forces =   -4.4672E+05    1.2498E+05    0.0000E+00  setid=       0
 node=  6357 local x,y,z forces =    2.5418E+05    1.7420E+05    0.0000E+00  setid=       0
 node=  6358 local x,y,z forces =    2.8017E+05    2.7820E+04    0.0000E+00  setid=       0
 node=  6359 local x,y,z forces =    2.7314E+05   -1.1499E+05    0.0000E+00  setid=       0
 node=  6360 local x,y,z forces =   -3.3908E+05   -9.6443E+04    0.0000E+00  setid=       0
 node=  6361 local x,y,z forces =   -3.8375E+05    1.6706E+05    0.0000E+00  setid=       0
 node=  6362 local x,y,z forces =    2.7107E+05    2.2756E+05    0.0000E+00  setid=       0
 node=  6363 local x,y,z forces =    3.3891E+05    3.4623E+04    0.0000E+00  setid=       0
 node=  6364 local x,y,z forces =    3.1083E+05   -1.5284E+05    0.0000E+00  setid=       0
 node=  6365 local x,y,z forces =   -2.7907E+05   -1.2989E+05    0.0000E+00  setid=       0
 node=  6366 local x,y,z forces =   -3.1940E+05    1.3698E+05    0.0000E+00  setid=       0
 node=  6367 local x,y,z forces =    3.7576E+05    1.6424E+05    0.0000E+00  setid=       0
 node=  6368 local x,y,z forces =    5.0505E+05    1.3290E+04    0.0000E+00  setid=       0
 node=  6369 local x,y,z forces =    4.2193E+05   -1.2632E+05    0.0000E+00  setid=       0
 node=  6370 local x,y,z forces =   -2.2473E+05   -1.0409E+05    0.0000E+00  setid=       0
 node=  6371 local x,y,z forces =   -1.5215E+05    2.7525E+05    0.0000E+00  setid=       0
 node=  6372 local x,y,z forces =    2.3431E+05    3.8157E+05    0.0000E+00  setid=       0
 node=  6373 local x,y,z forces =    3.2280E+05    6.3753E+04    0.0000E+00  setid=       0
 node=  6374 local x,y,z forces =    2.6204E+05   -2.6236E+05    0.0000E+00  setid=       0
 node=  6375 local x,y,z forces =   -1.0084E+05   -2.0980E+05    0.0000E+00  setid=       0
             force resultants   =   -2.8460E+01    1.4843E-09   -1.2819E+07
