 400x600                                                                 
                         ls-dyna smp.123264 d           date 01/12/2018

{BEGIN LEGEND}
 Entity #        Title
        0     bottom                                                                
        0     top                                                                   
        0     middle                                                                
{END LEGEND}

 single point constraint forces

 output at time =   0.00000E+00
 node=     1 local x,y,z forces =    0.0000E+00    0.0000E+00    0.0000E+00  setid=       0
 node=     2 local x,y,z forces =    0.0000E+00    0.0000E+00    0.0000E+00  setid=       0
 node=     3 local x,y,z forces =    0.0000E+00    0.0000E+00    0.0000E+00  setid=       0
 node=     4 local x,y,z forces =    0.0000E+00    0.0000E+00    0.0000E+00  setid=       0
 node=     5 local x,y,z forces =    0.0000E+00    0.0000E+00    0.0000E+00  setid=       0
 node=     6 local x,y,z forces =    0.0000E+00    0.0000E+00    0.0000E+00  setid=       0
 node=     7 local x,y,z forces =    0.0000E+00    0.0000E+00    0.0000E+00  setid=       0
 node=     8 local x,y,z forces =    0.0000E+00    0.0000E+00    0.0000E+00  setid=       0
 node=     9 local x,y,z forces =    0.0000E+00    0.0000E+00    0.0000E+00  setid=       0
 node=    10 local x,y,z forces =    0.0000E+00    0.0000E+00    0.0000E+00  setid=       0
 node=    11 local x,y,z forces =    0.0000E+00    0.0000E+00    0.0000E+00  setid=       0
 node=    12 local x,y,z forces =    0.0000E+00    0.0000E+00    0.0000E+00  setid=       0
 node=    13 local x,y,z forces =    0.0000E+00    0.0000E+00    0.0000E+00  setid=       0
 node=    14 local x,y,z forces =    0.0000E+00    0.0000E+00    0.0000E+00  setid=       0
 node=    15 local x,y,z forces =    0.0000E+00    0.0000E+00    0.0000E+00  setid=       0
 node=    16 local x,y,z forces =    0.0000E+00    0.0000E+00    0.0000E+00  setid=       0
 node=    17 local x,y,z forces =    0.0000E+00    0.0000E+00    0.0000E+00  setid=       0
 node=    18 local x,y,z forces =    0.0000E+00    0.0000E+00    0.0000E+00  setid=       0
 node=    19 local x,y,z forces =    0.0000E+00    0.0000E+00    0.0000E+00  setid=       0
 node=    20 local x,y,z forces =    0.0000E+00    0.0000E+00    0.0000E+00  setid=       0
 node=    21 local x,y,z forces =    0.0000E+00    0.0000E+00    0.0000E+00  setid=       0
 node=    22 local x,y,z forces =    0.0000E+00    0.0000E+00    0.0000E+00  setid=       0
 node=    23 local x,y,z forces =    0.0000E+00    0.0000E+00    0.0000E+00  setid=       0
 node=    24 local x,y,z forces =    0.0000E+00    0.0000E+00    0.0000E+00  setid=       0
 node=    25 local x,y,z forces =    0.0000E+00    0.0000E+00    0.0000E+00  setid=       0
 node=    26 local x,y,z forces =    0.0000E+00    0.0000E+00    0.0000E+00  setid=       0
 node=    27 local x,y,z forces =    0.0000E+00    0.0000E+00    0.0000E+00  setid=       0
 node=    28 local x,y,z forces =    0.0000E+00    0.0000E+00    0.0000E+00  setid=       0
 node=    29 local x,y,z forces =    0.0000E+00    0.0000E+00    0.0000E+00  setid=       0
 node=    30 local x,y,z forces =    0.0000E+00    0.0000E+00    0.0000E+00  setid=       0
 node=    31 local x,y,z forces =    0.0000E+00    0.0000E+00    0.0000E+00  setid=       0
 node=    32 local x,y,z forces =    0.0000E+00    0.0000E+00    0.0000E+00  setid=       0
 node=    33 local x,y,z forces =    0.0000E+00    0.0000E+00    0.0000E+00  setid=       0
 node=    34 local x,y,z forces =    0.0000E+00    0.0000E+00    0.0000E+00  setid=       0
 node=    35 local x,y,z forces =    0.0000E+00    0.0000E+00    0.0000E+00  setid=       0
 node=    36 local x,y,z forces =    0.0000E+00    0.0000E+00    0.0000E+00  setid=       0
 node=    37 local x,y,z forces =    0.0000E+00    0.0000E+00    0.0000E+00  setid=       0
 node=    38 local x,y,z forces =    0.0000E+00    0.0000E+00    0.0000E+00  setid=       0
 node=    39 local x,y,z forces =    0.0000E+00    0.0000E+00    0.0000E+00  setid=       0
 node=    40 local x,y,z forces =    0.0000E+00    0.0000E+00    0.0000E+00  setid=       0
 node=    41 local x,y,z forces =    0.0000E+00    0.0000E+00    0.0000E+00  setid=       0
 node=    42 local x,y,z forces =    0.0000E+00    0.0000E+00    0.0000E+00  setid=       0
 node=    43 local x,y,z forces =    0.0000E+00    0.0000E+00    0.0000E+00  setid=       0
 node=    44 local x,y,z forces =    0.0000E+00    0.0000E+00    0.0000E+00  setid=       0
 node=    45 local x,y,z forces =    0.0000E+00    0.0000E+00    0.0000E+00  setid=       0
 node=    46 local x,y,z forces =    0.0000E+00    0.0000E+00    0.0000E+00  setid=       0
 node=    47 local x,y,z forces =    0.0000E+00    0.0000E+00    0.0000E+00  setid=       0
 node=    48 local x,y,z forces =    0.0000E+00    0.0000E+00    0.0000E+00  setid=       0
 node=    49 local x,y,z forces =    0.0000E+00    0.0000E+00    0.0000E+00  setid=       0
 node=    50 local x,y,z forces =    0.0000E+00    0.0000E+00    0.0000E+00  setid=       0
 node=    51 local x,y,z forces =    0.0000E+00    0.0000E+00    0.0000E+00  setid=       0
 node=    52 local x,y,z forces =    0.0000E+00    0.0000E+00    0.0000E+00  setid=       0
 node=    53 local x,y,z forces =    0.0000E+00    0.0000E+00    0.0000E+00  setid=       0
 node=    54 local x,y,z forces =    0.0000E+00    0.0000E+00    0.0000E+00  setid=       0
 node=    55 local x,y,z forces =    0.0000E+00    0.0000E+00    0.0000E+00  setid=       0
 node=    56 local x,y,z forces =    0.0000E+00    0.0000E+00    0.0000E+00  setid=       0
 node=    57 local x,y,z forces =    0.0000E+00    0.0000E+00    0.0000E+00  setid=       0
 node=    58 local x,y,z forces =    0.0000E+00    0.0000E+00    0.0000E+00  setid=       0
 node=    59 local x,y,z forces =    0.0000E+00    0.0000E+00    0.0000E+00  setid=       0
 node=    60 local x,y,z forces =    0.0000E+00    0.0000E+00    0.0000E+00  setid=       0
 node=    61 local x,y,z forces =    0.0000E+00    0.0000E+00    0.0000E+00  setid=       0
 node=    62 local x,y,z forces =    0.0000E+00    0.0000E+00    0.0000E+00  setid=       0
 node=    63 local x,y,z forces =    0.0000E+00    0.0000E+00    0.0000E+00  setid=       0
 node=    64 local x,y,z forces =    0.0000E+00    0.0000E+00    0.0000E+00  setid=       0
 node=    65 local x,y,z forces =    0.0000E+00    0.0000E+00    0.0000E+00  setid=       0
 node=    66 local x,y,z forces =    0.0000E+00    0.0000E+00    0.0000E+00  setid=       0
 node=    67 local x,y,z forces =    0.0000E+00    0.0000E+00    0.0000E+00  setid=       0
 node=    68 local x,y,z forces =    0.0000E+00    0.0000E+00    0.0000E+00  setid=       0
 node=    69 local x,y,z forces =    0.0000E+00    0.0000E+00    0.0000E+00  setid=       0
 node=    70 local x,y,z forces =    0.0000E+00    0.0000E+00    0.0000E+00  setid=       0
 node=    71 local x,y,z forces =    0.0000E+00    0.0000E+00    0.0000E+00  setid=       0
 node=    72 local x,y,z forces =    0.0000E+00    0.0000E+00    0.0000E+00  setid=       0
 node=    73 local x,y,z forces =    0.0000E+00    0.0000E+00    0.0000E+00  setid=       0
 node=    74 local x,y,z forces =    0.0000E+00    0.0000E+00    0.0000E+00  setid=       0
 node=    75 local x,y,z forces =    0.0000E+00    0.0000E+00    0.0000E+00  setid=       0
 node=    76 local x,y,z forces =    0.0000E+00    0.0000E+00    0.0000E+00  setid=       0
 node=    77 local x,y,z forces =    0.0000E+00    0.0000E+00    0.0000E+00  setid=       0
 node=    78 local x,y,z forces =    0.0000E+00    0.0000E+00    0.0000E+00  setid=       0
 node=    79 local x,y,z forces =    0.0000E+00    0.0000E+00    0.0000E+00  setid=       0
 node=    80 local x,y,z forces =    0.0000E+00    0.0000E+00    0.0000E+00  setid=       0
 node=    81 local x,y,z forces =    0.0000E+00    0.0000E+00    0.0000E+00  setid=       0
 node=    82 local x,y,z forces =    0.0000E+00    0.0000E+00    0.0000E+00  setid=       0
 node=    83 local x,y,z forces =    0.0000E+00    0.0000E+00    0.0000E+00  setid=       0
 node=    84 local x,y,z forces =    0.0000E+00    0.0000E+00    0.0000E+00  setid=       0
 node=    85 local x,y,z forces =    0.0000E+00    0.0000E+00    0.0000E+00  setid=       0
 node=    86 local x,y,z forces =    0.0000E+00    0.0000E+00    0.0000E+00  setid=       0
 node=    87 local x,y,z forces =    0.0000E+00    0.0000E+00    0.0000E+00  setid=       0
 node=    88 local x,y,z forces =    0.0000E+00    0.0000E+00    0.0000E+00  setid=       0
 node=    89 local x,y,z forces =    0.0000E+00    0.0000E+00    0.0000E+00  setid=       0
 node=    90 local x,y,z forces =    0.0000E+00    0.0000E+00    0.0000E+00  setid=       0
 node=    91 local x,y,z forces =    0.0000E+00    0.0000E+00    0.0000E+00  setid=       0
 node=    92 local x,y,z forces =    0.0000E+00    0.0000E+00    0.0000E+00  setid=       0
 node=    93 local x,y,z forces =    0.0000E+00    0.0000E+00    0.0000E+00  setid=       0
 node=    94 local x,y,z forces =    0.0000E+00    0.0000E+00    0.0000E+00  setid=       0
 node=    95 local x,y,z forces =    0.0000E+00    0.0000E+00    0.0000E+00  setid=       0
 node=    96 local x,y,z forces =    0.0000E+00    0.0000E+00    0.0000E+00  setid=       0
 node=    97 local x,y,z forces =    0.0000E+00    0.0000E+00    0.0000E+00  setid=       0
 node=    98 local x,y,z forces =    0.0000E+00    0.0000E+00    0.0000E+00  setid=       0
 node=    99 local x,y,z forces =    0.0000E+00    0.0000E+00    0.0000E+00  setid=       0
 node=   100 local x,y,z forces =    0.0000E+00    0.0000E+00    0.0000E+00  setid=       0
 node=   101 local x,y,z forces =    0.0000E+00    0.0000E+00    0.0000E+00  setid=       0
 node=   102 local x,y,z forces =    0.0000E+00    0.0000E+00    0.0000E+00  setid=       0
 node=   103 local x,y,z forces =    0.0000E+00    0.0000E+00    0.0000E+00  setid=       0
 node=   104 local x,y,z forces =    0.0000E+00    0.0000E+00    0.0000E+00  setid=       0
 node=   105 local x,y,z forces =    0.0000E+00    0.0000E+00    0.0000E+00  setid=       0
 node=   106 local x,y,z forces =    0.0000E+00    0.0000E+00    0.0000E+00  setid=       0
 node=   107 local x,y,z forces =    0.0000E+00    0.0000E+00    0.0000E+00  setid=       0
 node=   108 local x,y,z forces =    0.0000E+00    0.0000E+00    0.0000E+00  setid=       0
 node=   109 local x,y,z forces =    0.0000E+00    0.0000E+00    0.0000E+00  setid=       0
 node=   110 local x,y,z forces =    0.0000E+00    0.0000E+00    0.0000E+00  setid=       0
 node=   111 local x,y,z forces =    0.0000E+00    0.0000E+00    0.0000E+00  setid=       0
 node=   112 local x,y,z forces =    0.0000E+00    0.0000E+00    0.0000E+00  setid=       0
 node=   113 local x,y,z forces =    0.0000E+00    0.0000E+00    0.0000E+00  setid=       0
 node=   114 local x,y,z forces =    0.0000E+00    0.0000E+00    0.0000E+00  setid=       0
 node=   115 local x,y,z forces =    0.0000E+00    0.0000E+00    0.0000E+00  setid=       0
 node=   116 local x,y,z forces =    0.0000E+00    0.0000E+00    0.0000E+00  setid=       0
 node=   117 local x,y,z forces =    0.0000E+00    0.0000E+00    0.0000E+00  setid=       0
 node=  5851 local x,y,z forces =    0.0000E+00    0.0000E+00    0.0000E+00  setid=       0
 node=  5852 local x,y,z forces =    0.0000E+00    0.0000E+00    0.0000E+00  setid=       0
 node=  5853 local x,y,z forces =    0.0000E+00    0.0000E+00    0.0000E+00  setid=       0
 node=  5854 local x,y,z forces =    0.0000E+00    0.0000E+00    0.0000E+00  setid=       0
 node=  5855 local x,y,z forces =    0.0000E+00    0.0000E+00    0.0000E+00  setid=       0
 node=  5856 local x,y,z forces =    0.0000E+00    0.0000E+00    0.0000E+00  setid=       0
 node=  5857 local x,y,z forces =    0.0000E+00    0.0000E+00    0.0000E+00  setid=       0
 node=  5858 local x,y,z forces =    0.0000E+00    0.0000E+00    0.0000E+00  setid=       0
 node=  5859 local x,y,z forces =    0.0000E+00    0.0000E+00    0.0000E+00  setid=       0
 node=  5860 local x,y,z forces =    0.0000E+00    0.0000E+00    0.0000E+00  setid=       0
 node=  5861 local x,y,z forces =    0.0000E+00    0.0000E+00    0.0000E+00  setid=       0
 node=  5862 local x,y,z forces =    0.0000E+00    0.0000E+00    0.0000E+00  setid=       0
 node=  5863 local x,y,z forces =    0.0000E+00    0.0000E+00    0.0000E+00  setid=       0
 node=  5864 local x,y,z forces =    0.0000E+00    0.0000E+00    0.0000E+00  setid=       0
 node=  5865 local x,y,z forces =    0.0000E+00    0.0000E+00    0.0000E+00  setid=       0
 node=  5866 local x,y,z forces =    0.0000E+00    0.0000E+00    0.0000E+00  setid=       0
 node=  5867 local x,y,z forces =    0.0000E+00    0.0000E+00    0.0000E+00  setid=       0
 node=  5868 local x,y,z forces =    0.0000E+00    0.0000E+00    0.0000E+00  setid=       0
 node=  5869 local x,y,z forces =    0.0000E+00    0.0000E+00    0.0000E+00  setid=       0
 node=  5870 local x,y,z forces =    0.0000E+00    0.0000E+00    0.0000E+00  setid=       0
 node=  5871 local x,y,z forces =    0.0000E+00    0.0000E+00    0.0000E+00  setid=       0
 node=  5872 local x,y,z forces =    0.0000E+00    0.0000E+00    0.0000E+00  setid=       0
 node=  5873 local x,y,z forces =    0.0000E+00    0.0000E+00    0.0000E+00  setid=       0
 node=  5874 local x,y,z forces =    0.0000E+00    0.0000E+00    0.0000E+00  setid=       0
 node=  5875 local x,y,z forces =    0.0000E+00    0.0000E+00    0.0000E+00  setid=       0
 node=  5876 local x,y,z forces =    0.0000E+00    0.0000E+00    0.0000E+00  setid=       0
 node=  5877 local x,y,z forces =    0.0000E+00    0.0000E+00    0.0000E+00  setid=       0
 node=  5878 local x,y,z forces =    0.0000E+00    0.0000E+00    0.0000E+00  setid=       0
 node=  5879 local x,y,z forces =    0.0000E+00    0.0000E+00    0.0000E+00  setid=       0
 node=  5880 local x,y,z forces =    0.0000E+00    0.0000E+00    0.0000E+00  setid=       0
 node=  5881 local x,y,z forces =    0.0000E+00    0.0000E+00    0.0000E+00  setid=       0
 node=  5882 local x,y,z forces =    0.0000E+00    0.0000E+00    0.0000E+00  setid=       0
 node=  5883 local x,y,z forces =    0.0000E+00    0.0000E+00    0.0000E+00  setid=       0
 node=  5884 local x,y,z forces =    0.0000E+00    0.0000E+00    0.0000E+00  setid=       0
 node=  5885 local x,y,z forces =    0.0000E+00    0.0000E+00    0.0000E+00  setid=       0
 node=  5886 local x,y,z forces =    0.0000E+00    0.0000E+00    0.0000E+00  setid=       0
 node=  5887 local x,y,z forces =    0.0000E+00    0.0000E+00    0.0000E+00  setid=       0
 node=  5888 local x,y,z forces =    0.0000E+00    0.0000E+00    0.0000E+00  setid=       0
 node=  5889 local x,y,z forces =    0.0000E+00    0.0000E+00    0.0000E+00  setid=       0
 node=  5890 local x,y,z forces =    0.0000E+00    0.0000E+00    0.0000E+00  setid=       0
 node=  5891 local x,y,z forces =    0.0000E+00    0.0000E+00    0.0000E+00  setid=       0
 node=  5892 local x,y,z forces =    0.0000E+00    0.0000E+00    0.0000E+00  setid=       0
 node=  5893 local x,y,z forces =    0.0000E+00    0.0000E+00    0.0000E+00  setid=       0
 node=  5894 local x,y,z forces =    0.0000E+00    0.0000E+00    0.0000E+00  setid=       0
 node=  5895 local x,y,z forces =    0.0000E+00    0.0000E+00    0.0000E+00  setid=       0
 node=  5896 local x,y,z forces =    0.0000E+00    0.0000E+00    0.0000E+00  setid=       0
 node=  5897 local x,y,z forces =    0.0000E+00    0.0000E+00    0.0000E+00  setid=       0
 node=  5898 local x,y,z forces =    0.0000E+00    0.0000E+00    0.0000E+00  setid=       0
 node=  5899 local x,y,z forces =    0.0000E+00    0.0000E+00    0.0000E+00  setid=       0
 node=  5900 local x,y,z forces =    0.0000E+00    0.0000E+00    0.0000E+00  setid=       0
 node=  5901 local x,y,z forces =    0.0000E+00    0.0000E+00    0.0000E+00  setid=       0
 node=  5902 local x,y,z forces =    0.0000E+00    0.0000E+00    0.0000E+00  setid=       0
 node=  5903 local x,y,z forces =    0.0000E+00    0.0000E+00    0.0000E+00  setid=       0
 node=  5904 local x,y,z forces =    0.0000E+00    0.0000E+00    0.0000E+00  setid=       0
 node=  5905 local x,y,z forces =    0.0000E+00    0.0000E+00    0.0000E+00  setid=       0
 node=  5906 local x,y,z forces =    0.0000E+00    0.0000E+00    0.0000E+00  setid=       0
 node=  5907 local x,y,z forces =    0.0000E+00    0.0000E+00    0.0000E+00  setid=       0
 node=  5908 local x,y,z forces =    0.0000E+00    0.0000E+00    0.0000E+00  setid=       0
 node=  5909 local x,y,z forces =    0.0000E+00    0.0000E+00    0.0000E+00  setid=       0
 node=  5910 local x,y,z forces =    0.0000E+00    0.0000E+00    0.0000E+00  setid=       0
 node=  5911 local x,y,z forces =    0.0000E+00    0.0000E+00    0.0000E+00  setid=       0
 node=  5912 local x,y,z forces =    0.0000E+00    0.0000E+00    0.0000E+00  setid=       0
 node=  5913 local x,y,z forces =    0.0000E+00    0.0000E+00    0.0000E+00  setid=       0
 node=  5914 local x,y,z forces =    0.0000E+00    0.0000E+00    0.0000E+00  setid=       0
 node=  5915 local x,y,z forces =    0.0000E+00    0.0000E+00    0.0000E+00  setid=       0
 node=  5916 local x,y,z forces =    0.0000E+00    0.0000E+00    0.0000E+00  setid=       0
 node=  5917 local x,y,z forces =    0.0000E+00    0.0000E+00    0.0000E+00  setid=       0
 node=  5918 local x,y,z forces =    0.0000E+00    0.0000E+00    0.0000E+00  setid=       0
 node=  5919 local x,y,z forces =    0.0000E+00    0.0000E+00    0.0000E+00  setid=       0
 node=  5920 local x,y,z forces =    0.0000E+00    0.0000E+00    0.0000E+00  setid=       0
 node=  5921 local x,y,z forces =    0.0000E+00    0.0000E+00    0.0000E+00  setid=       0
 node=  5922 local x,y,z forces =    0.0000E+00    0.0000E+00    0.0000E+00  setid=       0
 node=  5923 local x,y,z forces =    0.0000E+00    0.0000E+00    0.0000E+00  setid=       0
 node=  5924 local x,y,z forces =    0.0000E+00    0.0000E+00    0.0000E+00  setid=       0
 node=  5925 local x,y,z forces =    0.0000E+00    0.0000E+00    0.0000E+00  setid=       0
 node=  5926 local x,y,z forces =    0.0000E+00    0.0000E+00    0.0000E+00  setid=       0
 node=  5927 local x,y,z forces =    0.0000E+00    0.0000E+00    0.0000E+00  setid=       0
 node=  5928 local x,y,z forces =    0.0000E+00    0.0000E+00    0.0000E+00  setid=       0
 node=  5929 local x,y,z forces =    0.0000E+00    0.0000E+00    0.0000E+00  setid=       0
 node=  5930 local x,y,z forces =    0.0000E+00    0.0000E+00    0.0000E+00  setid=       0
 node=  5931 local x,y,z forces =    0.0000E+00    0.0000E+00    0.0000E+00  setid=       0
 node=  5932 local x,y,z forces =    0.0000E+00    0.0000E+00    0.0000E+00  setid=       0
 node=  5933 local x,y,z forces =    0.0000E+00    0.0000E+00    0.0000E+00  setid=       0
 node=  5934 local x,y,z forces =    0.0000E+00    0.0000E+00    0.0000E+00  setid=       0
 node=  5935 local x,y,z forces =    0.0000E+00    0.0000E+00    0.0000E+00  setid=       0
 node=  5936 local x,y,z forces =    0.0000E+00    0.0000E+00    0.0000E+00  setid=       0
 node=  5937 local x,y,z forces =    0.0000E+00    0.0000E+00    0.0000E+00  setid=       0
 node=  5938 local x,y,z forces =    0.0000E+00    0.0000E+00    0.0000E+00  setid=       0
 node=  5939 local x,y,z forces =    0.0000E+00    0.0000E+00    0.0000E+00  setid=       0
 node=  5940 local x,y,z forces =    0.0000E+00    0.0000E+00    0.0000E+00  setid=       0
 node=  5941 local x,y,z forces =    0.0000E+00    0.0000E+00    0.0000E+00  setid=       0
 node=  5942 local x,y,z forces =    0.0000E+00    0.0000E+00    0.0000E+00  setid=       0
 node=  5943 local x,y,z forces =    0.0000E+00    0.0000E+00    0.0000E+00  setid=       0
 node=  5944 local x,y,z forces =    0.0000E+00    0.0000E+00    0.0000E+00  setid=       0
 node=  5945 local x,y,z forces =    0.0000E+00    0.0000E+00    0.0000E+00  setid=       0
 node=  5946 local x,y,z forces =    0.0000E+00    0.0000E+00    0.0000E+00  setid=       0
 node=  5947 local x,y,z forces =    0.0000E+00    0.0000E+00    0.0000E+00  setid=       0
 node=  5948 local x,y,z forces =    0.0000E+00    0.0000E+00    0.0000E+00  setid=       0
 node=  5949 local x,y,z forces =    0.0000E+00    0.0000E+00    0.0000E+00  setid=       0
 node=  5950 local x,y,z forces =    0.0000E+00    0.0000E+00    0.0000E+00  setid=       0
 node=  5951 local x,y,z forces =    0.0000E+00    0.0000E+00    0.0000E+00  setid=       0
 node=  5952 local x,y,z forces =    0.0000E+00    0.0000E+00    0.0000E+00  setid=       0
 node=  5953 local x,y,z forces =    0.0000E+00    0.0000E+00    0.0000E+00  setid=       0
 node=  5954 local x,y,z forces =    0.0000E+00    0.0000E+00    0.0000E+00  setid=       0
 node=  5955 local x,y,z forces =    0.0000E+00    0.0000E+00    0.0000E+00  setid=       0
 node=  5956 local x,y,z forces =    0.0000E+00    0.0000E+00    0.0000E+00  setid=       0
 node=  5957 local x,y,z forces =    0.0000E+00    0.0000E+00    0.0000E+00  setid=       0
 node=  5958 local x,y,z forces =    0.0000E+00    0.0000E+00    0.0000E+00  setid=       0
 node=  5959 local x,y,z forces =    0.0000E+00    0.0000E+00    0.0000E+00  setid=       0
 node=  5960 local x,y,z forces =    0.0000E+00    0.0000E+00    0.0000E+00  setid=       0
 node=  5961 local x,y,z forces =    0.0000E+00    0.0000E+00    0.0000E+00  setid=       0
 node=  5962 local x,y,z forces =    0.0000E+00    0.0000E+00    0.0000E+00  setid=       0
 node=  5963 local x,y,z forces =    0.0000E+00    0.0000E+00    0.0000E+00  setid=       0
 node=  5964 local x,y,z forces =    0.0000E+00    0.0000E+00    0.0000E+00  setid=       0
 node=  5965 local x,y,z forces =    0.0000E+00    0.0000E+00    0.0000E+00  setid=       0
 node=  5966 local x,y,z forces =    0.0000E+00    0.0000E+00    0.0000E+00  setid=       0
 node=  5967 local x,y,z forces =    0.0000E+00    0.0000E+00    0.0000E+00  setid=       0
             force resultants   =    0.0000E+00    0.0000E+00    0.0000E+00
 output at time =   5.00000E-04
 node=     1 local x,y,z forces =   -6.3742E+03   -6.5443E+03   -1.3397E+04  setid=       0
 node=     2 local x,y,z forces =   -1.5749E+03   -1.2430E+04   -2.2712E+04  setid=       0
 node=     3 local x,y,z forces =   -1.6297E+03   -1.1878E+04   -2.0947E+04  setid=       0
 node=     4 local x,y,z forces =   -6.6671E+02   -1.1893E+04   -2.1307E+04  setid=       0
 node=     5 local x,y,z forces =   -9.4656E+00   -1.1868E+04   -2.1092E+04  setid=       0
 node=     6 local x,y,z forces =    6.4837E+02   -1.1911E+04   -2.1340E+04  setid=       0
 node=     7 local x,y,z forces =    1.6148E+03   -1.1915E+04   -2.1012E+04  setid=       0
 node=     8 local x,y,z forces =    1.5643E+03   -1.2486E+04   -2.2812E+04  setid=       0
 node=     9 local x,y,z forces =    6.4005E+03   -6.5781E+03   -1.3459E+04  setid=       0
 node=    10 local x,y,z forces =   -1.1850E+04   -1.8609E+03   -2.1992E+04  setid=       0
 node=    11 local x,y,z forces =   -3.1261E+03   -3.7136E+03   -3.5754E+04  setid=       0
 node=    12 local x,y,z forces =   -3.2432E+03   -3.7683E+03   -3.2096E+04  setid=       0
 node=    13 local x,y,z forces =   -1.3184E+03   -3.8332E+03   -3.2738E+04  setid=       0
 node=    14 local x,y,z forces =   -1.5363E+01   -3.8556E+03   -3.2271E+04  setid=       0
 node=    15 local x,y,z forces =    1.2886E+03   -3.8394E+03   -3.2790E+04  setid=       0
 node=    16 local x,y,z forces =    3.2205E+03   -3.7802E+03   -3.2198E+04  setid=       0
 node=    17 local x,y,z forces =    3.1100E+03   -3.7324E+03   -3.5913E+04  setid=       0
 node=    18 local x,y,z forces =    1.1901E+04   -1.8730E+03   -2.2096E+04  setid=       0
 node=    19 local x,y,z forces =   -1.1034E+04   -2.2723E+03   -1.9639E+04  setid=       0
 node=    20 local x,y,z forces =   -3.1622E+03   -4.5191E+03   -3.0980E+04  setid=       0
 node=    21 local x,y,z forces =   -3.2862E+03   -4.5462E+03   -2.7267E+04  setid=       0
 node=    22 local x,y,z forces =   -1.3261E+03   -4.6106E+03   -2.7919E+04  setid=       0
 node=    23 local x,y,z forces =   -1.0889E+01   -4.6376E+03   -2.7445E+04  setid=       0
 node=    24 local x,y,z forces =    1.3050E+03   -4.6180E+03   -2.7965E+04  setid=       0
 node=    25 local x,y,z forces =    3.2723E+03   -4.5607E+03   -2.7355E+04  setid=       0
 node=    26 local x,y,z forces =    3.1521E+03   -4.5421E+03   -3.1123E+04  setid=       0
 node=    27 local x,y,z forces =    1.1085E+04   -2.2865E+03   -1.9737E+04  setid=       0
 node=    28 local x,y,z forces =   -1.0969E+04   -1.4346E+03   -1.9839E+04  setid=       0
 node=    29 local x,y,z forces =   -3.2199E+03   -2.8326E+03   -3.1307E+04  setid=       0
 node=    30 local x,y,z forces =   -3.3681E+03   -2.8109E+03   -2.7590E+04  setid=       0
 node=    31 local x,y,z forces =   -1.3640E+03   -2.8331E+03   -2.8300E+04  setid=       0
 node=    32 local x,y,z forces =   -8.8661E+00   -2.8461E+03   -2.7841E+04  setid=       0
 node=    33 local x,y,z forces =    1.3468E+03   -2.8377E+03   -2.8347E+04  setid=       0
 node=    34 local x,y,z forces =    3.3581E+03   -2.8202E+03   -2.7681E+04  setid=       0
 node=    35 local x,y,z forces =    3.2119E+03   -2.8474E+03   -3.1457E+04  setid=       0
 node=    36 local x,y,z forces =    1.1023E+04   -1.4438E+03   -1.9944E+04  setid=       0
 node=    37 local x,y,z forces =   -1.0912E+04   -9.9595E+02   -1.9618E+04  setid=       0
 node=    38 local x,y,z forces =   -3.2590E+03   -1.9643E+03   -3.0785E+04  setid=       0
 node=    39 local x,y,z forces =   -3.4250E+03   -1.9415E+03   -2.7029E+04  setid=       0
 node=    40 local x,y,z forces =   -1.3945E+03   -1.9475E+03   -2.7759E+04  setid=       0
 node=    41 local x,y,z forces =   -7.6531E+00   -1.9529E+03   -2.7303E+04  setid=       0
 node=    42 local x,y,z forces =    1.3796E+03   -1.9508E+03   -2.7805E+04  setid=       0
 node=    43 local x,y,z forces =    3.4172E+03   -1.9480E+03   -2.7119E+04  setid=       0
 node=    44 local x,y,z forces =    3.2523E+03   -1.9744E+03   -3.0937E+04  setid=       0
 node=    45 local x,y,z forces =    1.0967E+04   -1.0022E+03   -1.9725E+04  setid=       0
 node=    46 local x,y,z forces =   -1.0911E+04   -4.6260E+02   -1.9700E+04  setid=       0
 node=    47 local x,y,z forces =   -3.2819E+03   -9.1037E+02   -3.0903E+04  setid=       0
 node=    48 local x,y,z forces =   -3.4578E+03   -8.9477E+02   -2.7125E+04  setid=       0
 node=    49 local x,y,z forces =   -1.4122E+03   -8.9458E+02   -2.7866E+04  setid=       0
 node=    50 local x,y,z forces =   -7.0540E+00   -8.9584E+02   -2.7412E+04  setid=       0
 node=    51 local x,y,z forces =    1.3984E+03   -8.9610E+02   -2.7913E+04  setid=       0
 node=    52 local x,y,z forces =    3.4512E+03   -8.9783E+02   -2.7216E+04  setid=       0
 node=    53 local x,y,z forces =    3.2757E+03   -9.1512E+02   -3.1058E+04  setid=       0
 node=    54 local x,y,z forces =    1.0968E+04   -4.6552E+02   -1.9809E+04  setid=       0
 node=    55 local x,y,z forces =   -1.0904E+04   -9.0949E-12   -1.9641E+04  setid=       0
 node=    56 local x,y,z forces =   -3.2880E+03   -7.2760E-12   -3.0767E+04  setid=       0
 node=    57 local x,y,z forces =   -3.4684E+03    1.0914E-11   -2.6978E+04  setid=       0
 node=    58 local x,y,z forces =   -1.4176E+03    1.6371E-11   -2.7720E+04  setid=       0
 node=    59 local x,y,z forces =   -6.8592E+00    5.4570E-12   -2.7266E+04  setid=       0
 node=    60 local x,y,z forces =    1.4042E+03   -1.8190E-12   -2.7767E+04  setid=       0
 node=    61 local x,y,z forces =    3.4621E+03   -1.8190E-11   -2.7069E+04  setid=       0
 node=    62 local x,y,z forces =    3.2819E+03   -7.2760E-12   -3.0921E+04  setid=       0
 node=    63 local x,y,z forces =    1.0961E+04    9.0949E-12   -1.9750E+04  setid=       0
 node=    64 local x,y,z forces =   -1.0911E+04    4.6260E+02   -1.9700E+04  setid=       0
 node=    65 local x,y,z forces =   -3.2819E+03    9.1037E+02   -3.0903E+04  setid=       0
 node=    66 local x,y,z forces =   -3.4578E+03    8.9477E+02   -2.7125E+04  setid=       0
 node=    67 local x,y,z forces =   -1.4122E+03    8.9458E+02   -2.7866E+04  setid=       0
 node=    68 local x,y,z forces =   -7.0540E+00    8.9584E+02   -2.7412E+04  setid=       0
 node=    69 local x,y,z forces =    1.3984E+03    8.9610E+02   -2.7913E+04  setid=       0
 node=    70 local x,y,z forces =    3.4512E+03    8.9783E+02   -2.7216E+04  setid=       0
 node=    71 local x,y,z forces =    3.2757E+03    9.1512E+02   -3.1058E+04  setid=       0
 node=    72 local x,y,z forces =    1.0968E+04    4.6552E+02   -1.9809E+04  setid=       0
 node=    73 local x,y,z forces =   -1.0912E+04    9.9595E+02   -1.9618E+04  setid=       0
 node=    74 local x,y,z forces =   -3.2590E+03    1.9643E+03   -3.0785E+04  setid=       0
 node=    75 local x,y,z forces =   -3.4250E+03    1.9415E+03   -2.7029E+04  setid=       0
 node=    76 local x,y,z forces =   -1.3945E+03    1.9475E+03   -2.7759E+04  setid=       0
 node=    77 local x,y,z forces =   -7.6531E+00    1.9529E+03   -2.7303E+04  setid=       0
 node=    78 local x,y,z forces =    1.3796E+03    1.9508E+03   -2.7805E+04  setid=       0
 node=    79 local x,y,z forces =    3.4172E+03    1.9480E+03   -2.7119E+04  setid=       0
 node=    80 local x,y,z forces =    3.2523E+03    1.9744E+03   -3.0937E+04  setid=       0
 node=    81 local x,y,z forces =    1.0967E+04    1.0022E+03   -1.9725E+04  setid=       0
 node=    82 local x,y,z forces =   -1.0969E+04    1.4346E+03   -1.9839E+04  setid=       0
 node=    83 local x,y,z forces =   -3.2199E+03    2.8326E+03   -3.1307E+04  setid=       0
 node=    84 local x,y,z forces =   -3.3681E+03    2.8109E+03   -2.7590E+04  setid=       0
 node=    85 local x,y,z forces =   -1.3640E+03    2.8331E+03   -2.8300E+04  setid=       0
 node=    86 local x,y,z forces =   -8.8661E+00    2.8461E+03   -2.7841E+04  setid=       0
 node=    87 local x,y,z forces =    1.3468E+03    2.8377E+03   -2.8347E+04  setid=       0
 node=    88 local x,y,z forces =    3.3581E+03    2.8202E+03   -2.7681E+04  setid=       0
 node=    89 local x,y,z forces =    3.2119E+03    2.8474E+03   -3.1457E+04  setid=       0
 node=    90 local x,y,z forces =    1.1023E+04    1.4438E+03   -1.9944E+04  setid=       0
 node=    91 local x,y,z forces =   -1.1034E+04    2.2723E+03   -1.9639E+04  setid=       0
 node=    92 local x,y,z forces =   -3.1622E+03    4.5191E+03   -3.0980E+04  setid=       0
 node=    93 local x,y,z forces =   -3.2862E+03    4.5462E+03   -2.7267E+04  setid=       0
 node=    94 local x,y,z forces =   -1.3261E+03    4.6106E+03   -2.7919E+04  setid=       0
 node=    95 local x,y,z forces =   -1.0889E+01    4.6376E+03   -2.7445E+04  setid=       0
 node=    96 local x,y,z forces =    1.3050E+03    4.6180E+03   -2.7965E+04  setid=       0
 node=    97 local x,y,z forces =    3.2723E+03    4.5607E+03   -2.7355E+04  setid=       0
 node=    98 local x,y,z forces =    3.1521E+03    4.5421E+03   -3.1123E+04  setid=       0
 node=    99 local x,y,z forces =    1.1085E+04    2.2865E+03   -1.9737E+04  setid=       0
 node=   100 local x,y,z forces =   -1.1850E+04    1.8609E+03   -2.1992E+04  setid=       0
 node=   101 local x,y,z forces =   -3.1261E+03    3.7136E+03   -3.5754E+04  setid=       0
 node=   102 local x,y,z forces =   -3.2432E+03    3.7683E+03   -3.2096E+04  setid=       0
 node=   103 local x,y,z forces =   -1.3184E+03    3.8332E+03   -3.2738E+04  setid=       0
 node=   104 local x,y,z forces =   -1.5363E+01    3.8556E+03   -3.2271E+04  setid=       0
 node=   105 local x,y,z forces =    1.2886E+03    3.8394E+03   -3.2790E+04  setid=       0
 node=   106 local x,y,z forces =    3.2205E+03    3.7802E+03   -3.2198E+04  setid=       0
 node=   107 local x,y,z forces =    3.1100E+03    3.7324E+03   -3.5913E+04  setid=       0
 node=   108 local x,y,z forces =    1.1901E+04    1.8730E+03   -2.2096E+04  setid=       0
 node=   109 local x,y,z forces =   -6.3742E+03    6.5443E+03   -1.3397E+04  setid=       0
 node=   110 local x,y,z forces =   -1.5749E+03    1.2430E+04   -2.2712E+04  setid=       0
 node=   111 local x,y,z forces =   -1.6297E+03    1.1878E+04   -2.0947E+04  setid=       0
 node=   112 local x,y,z forces =   -6.6671E+02    1.1893E+04   -2.1307E+04  setid=       0
 node=   113 local x,y,z forces =   -9.4656E+00    1.1868E+04   -2.1092E+04  setid=       0
 node=   114 local x,y,z forces =    6.4837E+02    1.1911E+04   -2.1340E+04  setid=       0
 node=   115 local x,y,z forces =    1.6148E+03    1.1915E+04   -2.1012E+04  setid=       0
 node=   116 local x,y,z forces =    1.5643E+03    1.2486E+04   -2.2812E+04  setid=       0
 node=   117 local x,y,z forces =    6.4005E+03    6.5781E+03   -1.3459E+04  setid=       0
 node=  5851 local x,y,z forces =   -6.3742E+03   -6.5443E+03    0.0000E+00  setid=       0
 node=  5852 local x,y,z forces =   -1.5749E+03   -1.2430E+04    0.0000E+00  setid=       0
 node=  5853 local x,y,z forces =   -1.6297E+03   -1.1878E+04    0.0000E+00  setid=       0
 node=  5854 local x,y,z forces =   -6.6671E+02   -1.1893E+04    0.0000E+00  setid=       0
 node=  5855 local x,y,z forces =   -9.4656E+00   -1.1868E+04    0.0000E+00  setid=       0
 node=  5856 local x,y,z forces =    6.4837E+02   -1.1911E+04    0.0000E+00  setid=       0
 node=  5857 local x,y,z forces =    1.6148E+03   -1.1915E+04    0.0000E+00  setid=       0
 node=  5858 local x,y,z forces =    1.5643E+03   -1.2486E+04    0.0000E+00  setid=       0
 node=  5859 local x,y,z forces =    6.4005E+03   -6.5781E+03    0.0000E+00  setid=       0
 node=  5860 local x,y,z forces =   -1.1850E+04   -1.8609E+03    0.0000E+00  setid=       0
 node=  5861 local x,y,z forces =   -3.1261E+03   -3.7136E+03    0.0000E+00  setid=       0
 node=  5862 local x,y,z forces =   -3.2432E+03   -3.7683E+03    0.0000E+00  setid=       0
 node=  5863 local x,y,z forces =   -1.3184E+03   -3.8332E+03    0.0000E+00  setid=       0
 node=  5864 local x,y,z forces =   -1.5363E+01   -3.8556E+03    0.0000E+00  setid=       0
 node=  5865 local x,y,z forces =    1.2886E+03   -3.8394E+03    0.0000E+00  setid=       0
 node=  5866 local x,y,z forces =    3.2205E+03   -3.7802E+03    0.0000E+00  setid=       0
 node=  5867 local x,y,z forces =    3.1100E+03   -3.7324E+03    0.0000E+00  setid=       0
 node=  5868 local x,y,z forces =    1.1901E+04   -1.8730E+03    0.0000E+00  setid=       0
 node=  5869 local x,y,z forces =   -1.1034E+04   -2.2723E+03    0.0000E+00  setid=       0
 node=  5870 local x,y,z forces =   -3.1622E+03   -4.5191E+03    0.0000E+00  setid=       0
 node=  5871 local x,y,z forces =   -3.2862E+03   -4.5462E+03    0.0000E+00  setid=       0
 node=  5872 local x,y,z forces =   -1.3261E+03   -4.6106E+03    0.0000E+00  setid=       0
 node=  5873 local x,y,z forces =   -1.0889E+01   -4.6376E+03    0.0000E+00  setid=       0
 node=  5874 local x,y,z forces =    1.3050E+03   -4.6180E+03    0.0000E+00  setid=       0
 node=  5875 local x,y,z forces =    3.2723E+03   -4.5607E+03    0.0000E+00  setid=       0
 node=  5876 local x,y,z forces =    3.1521E+03   -4.5421E+03    0.0000E+00  setid=       0
 node=  5877 local x,y,z forces =    1.1085E+04   -2.2865E+03    0.0000E+00  setid=       0
 node=  5878 local x,y,z forces =   -1.0969E+04   -1.4346E+03    0.0000E+00  setid=       0
 node=  5879 local x,y,z forces =   -3.2199E+03   -2.8326E+03    0.0000E+00  setid=       0
 node=  5880 local x,y,z forces =   -3.3681E+03   -2.8109E+03    0.0000E+00  setid=       0
 node=  5881 local x,y,z forces =   -1.3640E+03   -2.8331E+03    0.0000E+00  setid=       0
 node=  5882 local x,y,z forces =   -8.8661E+00   -2.8461E+03    0.0000E+00  setid=       0
 node=  5883 local x,y,z forces =    1.3468E+03   -2.8377E+03    0.0000E+00  setid=       0
 node=  5884 local x,y,z forces =    3.3581E+03   -2.8202E+03    0.0000E+00  setid=       0
 node=  5885 local x,y,z forces =    3.2119E+03   -2.8474E+03    0.0000E+00  setid=       0
 node=  5886 local x,y,z forces =    1.1023E+04   -1.4438E+03    0.0000E+00  setid=       0
 node=  5887 local x,y,z forces =   -1.0912E+04   -9.9595E+02    0.0000E+00  setid=       0
 node=  5888 local x,y,z forces =   -3.2590E+03   -1.9643E+03    0.0000E+00  setid=       0
 node=  5889 local x,y,z forces =   -3.4250E+03   -1.9415E+03    0.0000E+00  setid=       0
 node=  5890 local x,y,z forces =   -1.3945E+03   -1.9475E+03    0.0000E+00  setid=       0
 node=  5891 local x,y,z forces =   -7.6531E+00   -1.9529E+03    0.0000E+00  setid=       0
 node=  5892 local x,y,z forces =    1.3796E+03   -1.9508E+03    0.0000E+00  setid=       0
 node=  5893 local x,y,z forces =    3.4172E+03   -1.9480E+03    0.0000E+00  setid=       0
 node=  5894 local x,y,z forces =    3.2523E+03   -1.9744E+03    0.0000E+00  setid=       0
 node=  5895 local x,y,z forces =    1.0967E+04   -1.0022E+03    0.0000E+00  setid=       0
 node=  5896 local x,y,z forces =   -1.0911E+04   -4.6260E+02    0.0000E+00  setid=       0
 node=  5897 local x,y,z forces =   -3.2819E+03   -9.1037E+02    0.0000E+00  setid=       0
 node=  5898 local x,y,z forces =   -3.4578E+03   -8.9477E+02    0.0000E+00  setid=       0
 node=  5899 local x,y,z forces =   -1.4122E+03   -8.9458E+02    0.0000E+00  setid=       0
 node=  5900 local x,y,z forces =   -7.0540E+00   -8.9584E+02    0.0000E+00  setid=       0
 node=  5901 local x,y,z forces =    1.3984E+03   -8.9610E+02    0.0000E+00  setid=       0
 node=  5902 local x,y,z forces =    3.4512E+03   -8.9783E+02    0.0000E+00  setid=       0
 node=  5903 local x,y,z forces =    3.2757E+03   -9.1512E+02    0.0000E+00  setid=       0
 node=  5904 local x,y,z forces =    1.0968E+04   -4.6552E+02    0.0000E+00  setid=       0
 node=  5905 local x,y,z forces =   -1.0904E+04   -8.1855E-11    0.0000E+00  setid=       0
 node=  5906 local x,y,z forces =   -3.2880E+03   -1.4370E-10    0.0000E+00  setid=       0
 node=  5907 local x,y,z forces =   -3.4684E+03    6.3665E-11    0.0000E+00  setid=       0
 node=  5908 local x,y,z forces =   -1.4176E+03   -7.8217E-11    0.0000E+00  setid=       0
 node=  5909 local x,y,z forces =   -6.8592E+00   -5.4206E-10    0.0000E+00  setid=       0
 node=  5910 local x,y,z forces =    1.4042E+03   -9.3314E-10    0.0000E+00  setid=       0
 node=  5911 local x,y,z forces =    3.4621E+03   -1.2733E-09    0.0000E+00  setid=       0
 node=  5912 local x,y,z forces =    3.2819E+03   -5.0932E-10    0.0000E+00  setid=       0
 node=  5913 local x,y,z forces =    1.0961E+04    2.0373E-10    0.0000E+00  setid=       0
 node=  5914 local x,y,z forces =   -1.0911E+04    4.6260E+02    0.0000E+00  setid=       0
 node=  5915 local x,y,z forces =   -3.2819E+03    9.1037E+02    0.0000E+00  setid=       0
 node=  5916 local x,y,z forces =   -3.4578E+03    8.9477E+02    0.0000E+00  setid=       0
 node=  5917 local x,y,z forces =   -1.4122E+03    8.9458E+02    0.0000E+00  setid=       0
 node=  5918 local x,y,z forces =   -7.0540E+00    8.9584E+02    0.0000E+00  setid=       0
 node=  5919 local x,y,z forces =    1.3984E+03    8.9610E+02    0.0000E+00  setid=       0
 node=  5920 local x,y,z forces =    3.4512E+03    8.9783E+02    0.0000E+00  setid=       0
 node=  5921 local x,y,z forces =    3.2757E+03    9.1512E+02    0.0000E+00  setid=       0
 node=  5922 local x,y,z forces =    1.0968E+04    4.6552E+02    0.0000E+00  setid=       0
 node=  5923 local x,y,z forces =   -1.0912E+04    9.9595E+02    0.0000E+00  setid=       0
 node=  5924 local x,y,z forces =   -3.2590E+03    1.9643E+03    0.0000E+00  setid=       0
 node=  5925 local x,y,z forces =   -3.4250E+03    1.9415E+03    0.0000E+00  setid=       0
 node=  5926 local x,y,z forces =   -1.3945E+03    1.9475E+03    0.0000E+00  setid=       0
 node=  5927 local x,y,z forces =   -7.6531E+00    1.9529E+03    0.0000E+00  setid=       0
 node=  5928 local x,y,z forces =    1.3796E+03    1.9508E+03    0.0000E+00  setid=       0
 node=  5929 local x,y,z forces =    3.4172E+03    1.9480E+03    0.0000E+00  setid=       0
 node=  5930 local x,y,z forces =    3.2523E+03    1.9744E+03    0.0000E+00  setid=       0
 node=  5931 local x,y,z forces =    1.0967E+04    1.0022E+03    0.0000E+00  setid=       0
 node=  5932 local x,y,z forces =   -1.0969E+04    1.4346E+03    0.0000E+00  setid=       0
 node=  5933 local x,y,z forces =   -3.2199E+03    2.8326E+03    0.0000E+00  setid=       0
 node=  5934 local x,y,z forces =   -3.3681E+03    2.8109E+03    0.0000E+00  setid=       0
 node=  5935 local x,y,z forces =   -1.3640E+03    2.8331E+03    0.0000E+00  setid=       0
 node=  5936 local x,y,z forces =   -8.8661E+00    2.8461E+03    0.0000E+00  setid=       0
 node=  5937 local x,y,z forces =    1.3468E+03    2.8377E+03    0.0000E+00  setid=       0
 node=  5938 local x,y,z forces =    3.3581E+03    2.8202E+03    0.0000E+00  setid=       0
 node=  5939 local x,y,z forces =    3.2119E+03    2.8474E+03    0.0000E+00  setid=       0
 node=  5940 local x,y,z forces =    1.1023E+04    1.4438E+03    0.0000E+00  setid=       0
 node=  5941 local x,y,z forces =   -1.1034E+04    2.2723E+03    0.0000E+00  setid=       0
 node=  5942 local x,y,z forces =   -3.1622E+03    4.5191E+03    0.0000E+00  setid=       0
 node=  5943 local x,y,z forces =   -3.2862E+03    4.5462E+03    0.0000E+00  setid=       0
 node=  5944 local x,y,z forces =   -1.3261E+03    4.6106E+03    0.0000E+00  setid=       0
 node=  5945 local x,y,z forces =   -1.0889E+01    4.6376E+03    0.0000E+00  setid=       0
 node=  5946 local x,y,z forces =    1.3050E+03    4.6180E+03    0.0000E+00  setid=       0
 node=  5947 local x,y,z forces =    3.2723E+03    4.5607E+03    0.0000E+00  setid=       0
 node=  5948 local x,y,z forces =    3.1521E+03    4.5421E+03    0.0000E+00  setid=       0
 node=  5949 local x,y,z forces =    1.1085E+04    2.2865E+03    0.0000E+00  setid=       0
 node=  5950 local x,y,z forces =   -1.1850E+04    1.8609E+03    0.0000E+00  setid=       0
 node=  5951 local x,y,z forces =   -3.1261E+03    3.7136E+03    0.0000E+00  setid=       0
 node=  5952 local x,y,z forces =   -3.2432E+03    3.7683E+03    0.0000E+00  setid=       0
 node=  5953 local x,y,z forces =   -1.3184E+03    3.8332E+03    0.0000E+00  setid=       0
 node=  5954 local x,y,z forces =   -1.5363E+01    3.8556E+03    0.0000E+00  setid=       0
 node=  5955 local x,y,z forces =    1.2886E+03    3.8394E+03    0.0000E+00  setid=       0
 node=  5956 local x,y,z forces =    3.2205E+03    3.7802E+03    0.0000E+00  setid=       0
 node=  5957 local x,y,z forces =    3.1100E+03    3.7324E+03    0.0000E+00  setid=       0
 node=  5958 local x,y,z forces =    1.1901E+04    1.8730E+03    0.0000E+00  setid=       0
 node=  5959 local x,y,z forces =   -6.3742E+03    6.5443E+03    0.0000E+00  setid=       0
 node=  5960 local x,y,z forces =   -1.5749E+03    1.2430E+04    0.0000E+00  setid=       0
 node=  5961 local x,y,z forces =   -1.6297E+03    1.1878E+04    0.0000E+00  setid=       0
 node=  5962 local x,y,z forces =   -6.6671E+02    1.1893E+04    0.0000E+00  setid=       0
 node=  5963 local x,y,z forces =   -9.4656E+00    1.1868E+04    0.0000E+00  setid=       0
 node=  5964 local x,y,z forces =    6.4837E+02    1.1911E+04    0.0000E+00  setid=       0
 node=  5965 local x,y,z forces =    1.6148E+03    1.1915E+04    0.0000E+00  setid=       0
 node=  5966 local x,y,z forces =    1.5643E+03    1.2486E+04    0.0000E+00  setid=       0
 node=  5967 local x,y,z forces =    6.4005E+03    6.5781E+03    0.0000E+00  setid=       0
             force resultants   =   -1.7883E-01   -1.3733E-10   -3.0674E+06
 output at time =   1.00000E-03
 node=     1 local x,y,z forces =   -1.2746E+04   -1.3085E+04   -2.6798E+04  setid=       0
 node=     2 local x,y,z forces =   -3.1503E+03   -2.4854E+04   -4.5432E+04  setid=       0
 node=     3 local x,y,z forces =   -3.2613E+03   -2.3751E+04   -4.1902E+04  setid=       0
 node=     4 local x,y,z forces =   -1.3354E+03   -2.3783E+04   -4.2626E+04  setid=       0
 node=     5 local x,y,z forces =   -2.0960E+01   -2.3737E+04   -4.2200E+04  setid=       0
 node=     6 local x,y,z forces =    1.2948E+03   -2.3824E+04   -4.2700E+04  setid=       0
 node=     7 local x,y,z forces =    3.2285E+03   -2.3833E+04   -4.2046E+04  setid=       0
 node=     8 local x,y,z forces =    3.1271E+03   -2.4979E+04   -4.5651E+04  setid=       0
 node=     9 local x,y,z forces =    1.2804E+04   -1.3160E+04   -2.6936E+04  setid=       0
 node=    10 local x,y,z forces =   -2.3695E+04   -3.7197E+03   -4.3991E+04  setid=       0
 node=    11 local x,y,z forces =   -6.2528E+03   -7.4236E+03   -7.1514E+04  setid=       0
 node=    12 local x,y,z forces =   -6.4896E+03   -7.5337E+03   -6.4201E+04  setid=       0
 node=    13 local x,y,z forces =   -2.6400E+03   -7.6642E+03   -6.5490E+04  setid=       0
 node=    14 local x,y,z forces =   -3.4019E+01   -7.7096E+03   -6.4560E+04  setid=       0
 node=    15 local x,y,z forces =    2.5742E+03   -7.6777E+03   -6.5604E+04  setid=       0
 node=    16 local x,y,z forces =    6.4394E+03   -7.5601E+03   -6.4425E+04  setid=       0
 node=    17 local x,y,z forces =    6.2175E+03   -7.4651E+03   -7.1864E+04  setid=       0
 node=    18 local x,y,z forces =    2.3808E+04   -3.7462E+03   -4.4219E+04  setid=       0
 node=    19 local x,y,z forces =   -2.2063E+04   -4.5435E+03   -3.9282E+04  setid=       0
 node=    20 local x,y,z forces =   -6.3243E+03   -9.0366E+03   -6.1962E+04  setid=       0
 node=    21 local x,y,z forces =   -6.5748E+03   -9.0916E+03   -5.4537E+04  setid=       0
 node=    22 local x,y,z forces =   -2.6545E+03   -9.2213E+03   -5.5846E+04  setid=       0
 node=    23 local x,y,z forces =   -2.4098E+01   -9.2761E+03   -5.4903E+04  setid=       0
 node=    24 local x,y,z forces =    2.6078E+03   -9.2375E+03   -5.5946E+04  setid=       0
 node=    25 local x,y,z forces =    6.5441E+03   -9.1238E+03   -5.4732E+04  setid=       0
 node=    26 local x,y,z forces =    6.3022E+03   -9.0873E+03   -6.2278E+04  setid=       0
 node=    27 local x,y,z forces =    2.2176E+04   -4.5749E+03   -3.9498E+04  setid=       0
 node=    28 local x,y,z forces =   -2.1933E+04   -2.8684E+03   -3.9682E+04  setid=       0
 node=    29 local x,y,z forces =   -6.4395E+03   -5.6638E+03   -6.2615E+04  setid=       0
 node=    30 local x,y,z forces =   -6.7382E+03   -5.6209E+03   -5.5183E+04  setid=       0
 node=    31 local x,y,z forces =   -2.7299E+03   -5.6658E+03   -5.6608E+04  setid=       0
 node=    32 local x,y,z forces =   -1.9618E+01   -5.6923E+03   -5.5694E+04  setid=       0
 node=    33 local x,y,z forces =    2.6919E+03   -5.6760E+03   -5.6711E+04  setid=       0
 node=    34 local x,y,z forces =    6.7162E+03   -5.6416E+03   -5.5383E+04  setid=       0
 node=    35 local x,y,z forces =    6.4220E+03   -5.6964E+03   -6.2946E+04  setid=       0
 node=    36 local x,y,z forces =    2.2052E+04   -2.8886E+03   -3.9912E+04  setid=       0
 node=    37 local x,y,z forces =   -2.1817E+04   -1.9914E+03   -3.9240E+04  setid=       0
 node=    38 local x,y,z forces =   -6.5176E+03   -3.9278E+03   -6.1571E+04  setid=       0
 node=    39 local x,y,z forces =   -6.8516E+03   -3.8826E+03   -5.4060E+04  setid=       0
 node=    40 local x,y,z forces =   -2.7907E+03   -3.8950E+03   -5.5524E+04  setid=       0
 node=    41 local x,y,z forces =   -1.6921E+01   -3.9061E+03   -5.4616E+04  setid=       0
 node=    42 local x,y,z forces =    2.7578E+03   -3.9022E+03   -5.5627E+04  setid=       0
 node=    43 local x,y,z forces =    6.8346E+03   -3.8970E+03   -5.4259E+04  setid=       0
 node=    44 local x,y,z forces =    6.5029E+03   -3.9503E+03   -6.1905E+04  setid=       0
 node=    45 local x,y,z forces =    2.1940E+04   -2.0052E+03   -3.9474E+04  setid=       0
 node=    46 local x,y,z forces =   -2.1816E+04   -9.2495E+02   -3.9403E+04  setid=       0
 node=    47 local x,y,z forces =   -6.5632E+03   -1.8203E+03   -6.1807E+04  setid=       0
 node=    48 local x,y,z forces =   -6.9172E+03   -1.7893E+03   -5.4252E+04  setid=       0
 node=    49 local x,y,z forces =   -2.8259E+03   -1.7891E+03   -5.5740E+04  setid=       0
 node=    50 local x,y,z forces =   -1.5591E+01   -1.7917E+03   -5.4836E+04  setid=       0
 node=    51 local x,y,z forces =    2.7955E+03   -1.7924E+03   -5.5844E+04  setid=       0
 node=    52 local x,y,z forces =    6.9027E+03   -1.7961E+03   -5.4453E+04  setid=       0
 node=    53 local x,y,z forces =    6.5498E+03   -1.8308E+03   -6.2147E+04  setid=       0
 node=    54 local x,y,z forces =    2.1941E+04   -9.3139E+02   -3.9643E+04  setid=       0
 node=    55 local x,y,z forces =   -2.1802E+04    1.8190E-11   -3.9284E+04  setid=       0
 node=    56 local x,y,z forces =   -6.5753E+03    3.2742E-11   -6.1533E+04  setid=       0
 node=    57 local x,y,z forces =   -6.9383E+03    0.0000E+00   -5.3957E+04  setid=       0
 node=    58 local x,y,z forces =   -2.8368E+03   -3.6380E-12   -5.5447E+04  setid=       0
 node=    59 local x,y,z forces =   -1.5157E+01   -1.8190E-11   -5.4542E+04  setid=       0
 node=    60 local x,y,z forces =    2.8072E+03   -1.8190E-11   -5.5551E+04  setid=       0
 node=    61 local x,y,z forces =    6.9245E+03   -7.2760E-12   -5.4158E+04  setid=       0
 node=    62 local x,y,z forces =    6.5624E+03    3.6380E-12   -6.1874E+04  setid=       0
 node=    63 local x,y,z forces =    2.1928E+04   -3.6380E-12   -3.9524E+04  setid=       0
 node=    64 local x,y,z forces =   -2.1816E+04    9.2495E+02   -3.9403E+04  setid=       0
 node=    65 local x,y,z forces =   -6.5632E+03    1.8203E+03   -6.1807E+04  setid=       0
 node=    66 local x,y,z forces =   -6.9172E+03    1.7893E+03   -5.4252E+04  setid=       0
 node=    67 local x,y,z forces =   -2.8259E+03    1.7891E+03   -5.5740E+04  setid=       0
 node=    68 local x,y,z forces =   -1.5591E+01    1.7917E+03   -5.4836E+04  setid=       0
 node=    69 local x,y,z forces =    2.7955E+03    1.7924E+03   -5.5844E+04  setid=       0
 node=    70 local x,y,z forces =    6.9027E+03    1.7961E+03   -5.4453E+04  setid=       0
 node=    71 local x,y,z forces =    6.5498E+03    1.8308E+03   -6.2147E+04  setid=       0
 node=    72 local x,y,z forces =    2.1941E+04    9.3139E+02   -3.9643E+04  setid=       0
 node=    73 local x,y,z forces =   -2.1817E+04    1.9914E+03   -3.9240E+04  setid=       0
 node=    74 local x,y,z forces =   -6.5176E+03    3.9278E+03   -6.1571E+04  setid=       0
 node=    75 local x,y,z forces =   -6.8516E+03    3.8826E+03   -5.4060E+04  setid=       0
 node=    76 local x,y,z forces =   -2.7907E+03    3.8950E+03   -5.5524E+04  setid=       0
 node=    77 local x,y,z forces =   -1.6921E+01    3.9061E+03   -5.4616E+04  setid=       0
 node=    78 local x,y,z forces =    2.7578E+03    3.9022E+03   -5.5627E+04  setid=       0
 node=    79 local x,y,z forces =    6.8346E+03    3.8970E+03   -5.4259E+04  setid=       0
 node=    80 local x,y,z forces =    6.5029E+03    3.9503E+03   -6.1905E+04  setid=       0
 node=    81 local x,y,z forces =    2.1940E+04    2.0052E+03   -3.9474E+04  setid=       0
 node=    82 local x,y,z forces =   -2.1933E+04    2.8684E+03   -3.9682E+04  setid=       0
 node=    83 local x,y,z forces =   -6.4395E+03    5.6638E+03   -6.2615E+04  setid=       0
 node=    84 local x,y,z forces =   -6.7382E+03    5.6209E+03   -5.5183E+04  setid=       0
 node=    85 local x,y,z forces =   -2.7299E+03    5.6658E+03   -5.6608E+04  setid=       0
 node=    86 local x,y,z forces =   -1.9618E+01    5.6923E+03   -5.5694E+04  setid=       0
 node=    87 local x,y,z forces =    2.6919E+03    5.6760E+03   -5.6711E+04  setid=       0
 node=    88 local x,y,z forces =    6.7162E+03    5.6416E+03   -5.5383E+04  setid=       0
 node=    89 local x,y,z forces =    6.4220E+03    5.6964E+03   -6.2946E+04  setid=       0
 node=    90 local x,y,z forces =    2.2052E+04    2.8886E+03   -3.9912E+04  setid=       0
 node=    91 local x,y,z forces =   -2.2063E+04    4.5435E+03   -3.9282E+04  setid=       0
 node=    92 local x,y,z forces =   -6.3243E+03    9.0366E+03   -6.1962E+04  setid=       0
 node=    93 local x,y,z forces =   -6.5748E+03    9.0916E+03   -5.4537E+04  setid=       0
 node=    94 local x,y,z forces =   -2.6545E+03    9.2213E+03   -5.5846E+04  setid=       0
 node=    95 local x,y,z forces =   -2.4098E+01    9.2761E+03   -5.4903E+04  setid=       0
 node=    96 local x,y,z forces =    2.6078E+03    9.2375E+03   -5.5946E+04  setid=       0
 node=    97 local x,y,z forces =    6.5441E+03    9.1238E+03   -5.4732E+04  setid=       0
 node=    98 local x,y,z forces =    6.3022E+03    9.0873E+03   -6.2278E+04  setid=       0
 node=    99 local x,y,z forces =    2.2176E+04    4.5749E+03   -3.9498E+04  setid=       0
 node=   100 local x,y,z forces =   -2.3695E+04    3.7197E+03   -4.3991E+04  setid=       0
 node=   101 local x,y,z forces =   -6.2528E+03    7.4236E+03   -7.1514E+04  setid=       0
 node=   102 local x,y,z forces =   -6.4896E+03    7.5337E+03   -6.4201E+04  setid=       0
 node=   103 local x,y,z forces =   -2.6400E+03    7.6642E+03   -6.5490E+04  setid=       0
 node=   104 local x,y,z forces =   -3.4019E+01    7.7096E+03   -6.4560E+04  setid=       0
 node=   105 local x,y,z forces =    2.5742E+03    7.6777E+03   -6.5604E+04  setid=       0
 node=   106 local x,y,z forces =    6.4394E+03    7.5601E+03   -6.4425E+04  setid=       0
 node=   107 local x,y,z forces =    6.2175E+03    7.4651E+03   -7.1864E+04  setid=       0
 node=   108 local x,y,z forces =    2.3808E+04    3.7462E+03   -4.4219E+04  setid=       0
 node=   109 local x,y,z forces =   -1.2746E+04    1.3085E+04   -2.6798E+04  setid=       0
 node=   110 local x,y,z forces =   -3.1503E+03    2.4854E+04   -4.5432E+04  setid=       0
 node=   111 local x,y,z forces =   -3.2613E+03    2.3751E+04   -4.1902E+04  setid=       0
 node=   112 local x,y,z forces =   -1.3354E+03    2.3783E+04   -4.2626E+04  setid=       0
 node=   113 local x,y,z forces =   -2.0960E+01    2.3737E+04   -4.2200E+04  setid=       0
 node=   114 local x,y,z forces =    1.2948E+03    2.3824E+04   -4.2700E+04  setid=       0
 node=   115 local x,y,z forces =    3.2285E+03    2.3833E+04   -4.2046E+04  setid=       0
 node=   116 local x,y,z forces =    3.1271E+03    2.4979E+04   -4.5651E+04  setid=       0
 node=   117 local x,y,z forces =    1.2804E+04    1.3160E+04   -2.6936E+04  setid=       0
 node=  5851 local x,y,z forces =   -1.2746E+04   -1.3085E+04    0.0000E+00  setid=       0
 node=  5852 local x,y,z forces =   -3.1503E+03   -2.4854E+04    0.0000E+00  setid=       0
 node=  5853 local x,y,z forces =   -3.2613E+03   -2.3751E+04    0.0000E+00  setid=       0
 node=  5854 local x,y,z forces =   -1.3354E+03   -2.3783E+04    0.0000E+00  setid=       0
 node=  5855 local x,y,z forces =   -2.0960E+01   -2.3737E+04    0.0000E+00  setid=       0
 node=  5856 local x,y,z forces =    1.2948E+03   -2.3824E+04    0.0000E+00  setid=       0
 node=  5857 local x,y,z forces =    3.2285E+03   -2.3833E+04    0.0000E+00  setid=       0
 node=  5858 local x,y,z forces =    3.1271E+03   -2.4979E+04    0.0000E+00  setid=       0
 node=  5859 local x,y,z forces =    1.2804E+04   -1.3160E+04    0.0000E+00  setid=       0
 node=  5860 local x,y,z forces =   -2.3695E+04   -3.7197E+03    0.0000E+00  setid=       0
 node=  5861 local x,y,z forces =   -6.2528E+03   -7.4236E+03    0.0000E+00  setid=       0
 node=  5862 local x,y,z forces =   -6.4896E+03   -7.5337E+03    0.0000E+00  setid=       0
 node=  5863 local x,y,z forces =   -2.6400E+03   -7.6642E+03    0.0000E+00  setid=       0
 node=  5864 local x,y,z forces =   -3.4019E+01   -7.7096E+03    0.0000E+00  setid=       0
 node=  5865 local x,y,z forces =    2.5742E+03   -7.6777E+03    0.0000E+00  setid=       0
 node=  5866 local x,y,z forces =    6.4394E+03   -7.5601E+03    0.0000E+00  setid=       0
 node=  5867 local x,y,z forces =    6.2175E+03   -7.4651E+03    0.0000E+00  setid=       0
 node=  5868 local x,y,z forces =    2.3808E+04   -3.7462E+03    0.0000E+00  setid=       0
 node=  5869 local x,y,z forces =   -2.2063E+04   -4.5435E+03    0.0000E+00  setid=       0
 node=  5870 local x,y,z forces =   -6.3243E+03   -9.0366E+03    0.0000E+00  setid=       0
 node=  5871 local x,y,z forces =   -6.5748E+03   -9.0916E+03    0.0000E+00  setid=       0
 node=  5872 local x,y,z forces =   -2.6545E+03   -9.2213E+03    0.0000E+00  setid=       0
 node=  5873 local x,y,z forces =   -2.4098E+01   -9.2761E+03    0.0000E+00  setid=       0
 node=  5874 local x,y,z forces =    2.6078E+03   -9.2375E+03    0.0000E+00  setid=       0
 node=  5875 local x,y,z forces =    6.5441E+03   -9.1238E+03    0.0000E+00  setid=       0
 node=  5876 local x,y,z forces =    6.3022E+03   -9.0873E+03    0.0000E+00  setid=       0
 node=  5877 local x,y,z forces =    2.2176E+04   -4.5749E+03    0.0000E+00  setid=       0
 node=  5878 local x,y,z forces =   -2.1933E+04   -2.8684E+03    0.0000E+00  setid=       0
 node=  5879 local x,y,z forces =   -6.4395E+03   -5.6638E+03    0.0000E+00  setid=       0
 node=  5880 local x,y,z forces =   -6.7382E+03   -5.6209E+03    0.0000E+00  setid=       0
 node=  5881 local x,y,z forces =   -2.7299E+03   -5.6658E+03    0.0000E+00  setid=       0
 node=  5882 local x,y,z forces =   -1.9618E+01   -5.6923E+03    0.0000E+00  setid=       0
 node=  5883 local x,y,z forces =    2.6919E+03   -5.6760E+03    0.0000E+00  setid=       0
 node=  5884 local x,y,z forces =    6.7162E+03   -5.6416E+03    0.0000E+00  setid=       0
 node=  5885 local x,y,z forces =    6.4220E+03   -5.6964E+03    0.0000E+00  setid=       0
 node=  5886 local x,y,z forces =    2.2052E+04   -2.8886E+03    0.0000E+00  setid=       0
 node=  5887 local x,y,z forces =   -2.1817E+04   -1.9914E+03    0.0000E+00  setid=       0
 node=  5888 local x,y,z forces =   -6.5176E+03   -3.9278E+03    0.0000E+00  setid=       0
 node=  5889 local x,y,z forces =   -6.8516E+03   -3.8826E+03    0.0000E+00  setid=       0
 node=  5890 local x,y,z forces =   -2.7907E+03   -3.8950E+03    0.0000E+00  setid=       0
 node=  5891 local x,y,z forces =   -1.6921E+01   -3.9061E+03    0.0000E+00  setid=       0
 node=  5892 local x,y,z forces =    2.7578E+03   -3.9022E+03    0.0000E+00  setid=       0
 node=  5893 local x,y,z forces =    6.8346E+03   -3.8970E+03    0.0000E+00  setid=       0
 node=  5894 local x,y,z forces =    6.5029E+03   -3.9503E+03    0.0000E+00  setid=       0
 node=  5895 local x,y,z forces =    2.1940E+04   -2.0052E+03    0.0000E+00  setid=       0
 node=  5896 local x,y,z forces =   -2.1816E+04   -9.2495E+02    0.0000E+00  setid=       0
 node=  5897 local x,y,z forces =   -6.5632E+03   -1.8203E+03    0.0000E+00  setid=       0
 node=  5898 local x,y,z forces =   -6.9172E+03   -1.7893E+03    0.0000E+00  setid=       0
 node=  5899 local x,y,z forces =   -2.8259E+03   -1.7891E+03    0.0000E+00  setid=       0
 node=  5900 local x,y,z forces =   -1.5591E+01   -1.7917E+03    0.0000E+00  setid=       0
 node=  5901 local x,y,z forces =    2.7955E+03   -1.7924E+03    0.0000E+00  setid=       0
 node=  5902 local x,y,z forces =    6.9027E+03   -1.7961E+03    0.0000E+00  setid=       0
 node=  5903 local x,y,z forces =    6.5498E+03   -1.8308E+03    0.0000E+00  setid=       0
 node=  5904 local x,y,z forces =    2.1941E+04   -9.3139E+02    0.0000E+00  setid=       0
 node=  5905 local x,y,z forces =   -2.1802E+04    1.4188E-10    0.0000E+00  setid=       0
 node=  5906 local x,y,z forces =   -6.5753E+03   -8.0036E-11    0.0000E+00  setid=       0
 node=  5907 local x,y,z forces =   -6.9383E+03    5.4570E-11    0.0000E+00  setid=       0
 node=  5908 local x,y,z forces =   -2.8368E+03    1.8190E-11    0.0000E+00  setid=       0
 node=  5909 local x,y,z forces =   -1.5157E+01    7.5306E-10    0.0000E+00  setid=       0
 node=  5910 local x,y,z forces =    2.8072E+03    9.2041E-10    0.0000E+00  setid=       0
 node=  5911 local x,y,z forces =    6.9245E+03    3.3469E-10    0.0000E+00  setid=       0
 node=  5912 local x,y,z forces =    6.5624E+03   -1.8917E-10    0.0000E+00  setid=       0
 node=  5913 local x,y,z forces =    2.1928E+04   -5.8208E-10    0.0000E+00  setid=       0
 node=  5914 local x,y,z forces =   -2.1816E+04    9.2495E+02    0.0000E+00  setid=       0
 node=  5915 local x,y,z forces =   -6.5632E+03    1.8203E+03    0.0000E+00  setid=       0
 node=  5916 local x,y,z forces =   -6.9172E+03    1.7893E+03    0.0000E+00  setid=       0
 node=  5917 local x,y,z forces =   -2.8259E+03    1.7891E+03    0.0000E+00  setid=       0
 node=  5918 local x,y,z forces =   -1.5591E+01    1.7917E+03    0.0000E+00  setid=       0
 node=  5919 local x,y,z forces =    2.7955E+03    1.7924E+03    0.0000E+00  setid=       0
 node=  5920 local x,y,z forces =    6.9027E+03    1.7961E+03    0.0000E+00  setid=       0
 node=  5921 local x,y,z forces =    6.5498E+03    1.8308E+03    0.0000E+00  setid=       0
 node=  5922 local x,y,z forces =    2.1941E+04    9.3139E+02    0.0000E+00  setid=       0
 node=  5923 local x,y,z forces =   -2.1817E+04    1.9914E+03    0.0000E+00  setid=       0
 node=  5924 local x,y,z forces =   -6.5176E+03    3.9278E+03    0.0000E+00  setid=       0
 node=  5925 local x,y,z forces =   -6.8516E+03    3.8826E+03    0.0000E+00  setid=       0
 node=  5926 local x,y,z forces =   -2.7907E+03    3.8950E+03    0.0000E+00  setid=       0
 node=  5927 local x,y,z forces =   -1.6921E+01    3.9061E+03    0.0000E+00  setid=       0
 node=  5928 local x,y,z forces =    2.7578E+03    3.9022E+03    0.0000E+00  setid=       0
 node=  5929 local x,y,z forces =    6.8346E+03    3.8970E+03    0.0000E+00  setid=       0
 node=  5930 local x,y,z forces =    6.5029E+03    3.9503E+03    0.0000E+00  setid=       0
 node=  5931 local x,y,z forces =    2.1940E+04    2.0052E+03    0.0000E+00  setid=       0
 node=  5932 local x,y,z forces =   -2.1933E+04    2.8684E+03    0.0000E+00  setid=       0
 node=  5933 local x,y,z forces =   -6.4395E+03    5.6638E+03    0.0000E+00  setid=       0
 node=  5934 local x,y,z forces =   -6.7382E+03    5.6209E+03    0.0000E+00  setid=       0
 node=  5935 local x,y,z forces =   -2.7299E+03    5.6658E+03    0.0000E+00  setid=       0
 node=  5936 local x,y,z forces =   -1.9618E+01    5.6923E+03    0.0000E+00  setid=       0
 node=  5937 local x,y,z forces =    2.6919E+03    5.6760E+03    0.0000E+00  setid=       0
 node=  5938 local x,y,z forces =    6.7162E+03    5.6416E+03    0.0000E+00  setid=       0
 node=  5939 local x,y,z forces =    6.4220E+03    5.6964E+03    0.0000E+00  setid=       0
 node=  5940 local x,y,z forces =    2.2052E+04    2.8886E+03    0.0000E+00  setid=       0
 node=  5941 local x,y,z forces =   -2.2063E+04    4.5435E+03    0.0000E+00  setid=       0
 node=  5942 local x,y,z forces =   -6.3243E+03    9.0366E+03    0.0000E+00  setid=       0
 node=  5943 local x,y,z forces =   -6.5748E+03    9.0916E+03    0.0000E+00  setid=       0
 node=  5944 local x,y,z forces =   -2.6545E+03    9.2213E+03    0.0000E+00  setid=       0
 node=  5945 local x,y,z forces =   -2.4098E+01    9.2761E+03    0.0000E+00  setid=       0
 node=  5946 local x,y,z forces =    2.6078E+03    9.2375E+03    0.0000E+00  setid=       0
 node=  5947 local x,y,z forces =    6.5441E+03    9.1238E+03    0.0000E+00  setid=       0
 node=  5948 local x,y,z forces =    6.3022E+03    9.0873E+03    0.0000E+00  setid=       0
 node=  5949 local x,y,z forces =    2.2176E+04    4.5749E+03    0.0000E+00  setid=       0
 node=  5950 local x,y,z forces =   -2.3695E+04    3.7197E+03    0.0000E+00  setid=       0
 node=  5951 local x,y,z forces =   -6.2528E+03    7.4236E+03    0.0000E+00  setid=       0
 node=  5952 local x,y,z forces =   -6.4896E+03    7.5337E+03    0.0000E+00  setid=       0
 node=  5953 local x,y,z forces =   -2.6400E+03    7.6642E+03    0.0000E+00  setid=       0
 node=  5954 local x,y,z forces =   -3.4019E+01    7.7096E+03    0.0000E+00  setid=       0
 node=  5955 local x,y,z forces =    2.5742E+03    7.6777E+03    0.0000E+00  setid=       0
 node=  5956 local x,y,z forces =    6.4394E+03    7.5601E+03    0.0000E+00  setid=       0
 node=  5957 local x,y,z forces =    6.2175E+03    7.4651E+03    0.0000E+00  setid=       0
 node=  5958 local x,y,z forces =    2.3808E+04    3.7462E+03    0.0000E+00  setid=       0
 node=  5959 local x,y,z forces =   -1.2746E+04    1.3085E+04    0.0000E+00  setid=       0
 node=  5960 local x,y,z forces =   -3.1503E+03    2.4854E+04    0.0000E+00  setid=       0
 node=  5961 local x,y,z forces =   -3.2613E+03    2.3751E+04    0.0000E+00  setid=       0
 node=  5962 local x,y,z forces =   -1.3354E+03    2.3783E+04    0.0000E+00  setid=       0
 node=  5963 local x,y,z forces =   -2.0960E+01    2.3737E+04    0.0000E+00  setid=       0
 node=  5964 local x,y,z forces =    1.2948E+03    2.3824E+04    0.0000E+00  setid=       0
 node=  5965 local x,y,z forces =    3.2285E+03    2.3833E+04    0.0000E+00  setid=       0
 node=  5966 local x,y,z forces =    3.1271E+03    2.4979E+04    0.0000E+00  setid=       0
 node=  5967 local x,y,z forces =    1.2804E+04    1.3160E+04    0.0000E+00  setid=       0
             force resultants   =   -1.1139E+00    5.6989E-09   -6.1364E+06
 output at time =   1.50000E-03
 node=     1 local x,y,z forces =   -1.9115E+04   -1.9622E+04   -4.0202E+04  setid=       0
 node=     2 local x,y,z forces =   -4.7265E+03   -3.7271E+04   -6.8154E+04  setid=       0
 node=     3 local x,y,z forces =   -4.8956E+03   -3.5619E+04   -6.2863E+04  setid=       0
 node=     4 local x,y,z forces =   -2.0070E+03   -3.5670E+04   -6.3956E+04  setid=       0
 node=     5 local x,y,z forces =   -3.5377E+01   -3.5604E+04   -6.3323E+04  setid=       0
 node=     6 local x,y,z forces =    1.9385E+03   -3.5740E+04   -6.4080E+04  setid=       0
 node=     7 local x,y,z forces =    4.8403E+03   -3.5757E+04   -6.3106E+04  setid=       0
 node=     8 local x,y,z forces =    4.6877E+03   -3.7479E+04   -6.8523E+04  setid=       0
 node=     9 local x,y,z forces =    1.9212E+04   -1.9747E+04   -4.0434E+04  setid=       0
 node=    10 local x,y,z forces =   -3.5534E+04   -5.5758E+03   -6.5992E+04  setid=       0
 node=    11 local x,y,z forces =   -9.3807E+03   -1.1129E+04   -1.0727E+05  setid=       0
 node=    12 local x,y,z forces =   -9.7403E+03   -1.1296E+04   -9.6308E+04  setid=       0
 node=    13 local x,y,z forces =   -3.9664E+03   -1.1493E+04   -9.8252E+04  setid=       0
 node=    14 local x,y,z forces =   -5.7422E+01   -1.1562E+04   -9.6867E+04  setid=       0
 node=    15 local x,y,z forces =    3.8553E+03   -1.1515E+04   -9.8445E+04  setid=       0
 node=    16 local x,y,z forces =    9.6558E+03   -1.1340E+04   -9.6684E+04  setid=       0
 node=    17 local x,y,z forces =    9.3218E+03   -1.1199E+04   -1.0786E+05  setid=       0
 node=    18 local x,y,z forces =    3.5722E+04   -5.6202E+03   -6.6375E+04  setid=       0
 node=    19 local x,y,z forces =   -3.3084E+04   -6.8130E+03   -5.8925E+04  setid=       0
 node=    20 local x,y,z forces =   -9.4868E+03   -1.3551E+04   -9.2940E+04  setid=       0
 node=    21 local x,y,z forces =   -9.8662E+03   -1.3636E+04   -8.1806E+04  setid=       0
 node=    22 local x,y,z forces =   -3.9862E+03   -1.3832E+04   -8.3779E+04  setid=       0
 node=    23 local x,y,z forces =   -4.0650E+01   -1.3915E+04   -8.2371E+04  setid=       0
 node=    24 local x,y,z forces =    3.9076E+03   -1.3859E+04   -8.3947E+04  setid=       0
 node=    25 local x,y,z forces =    9.8147E+03   -1.3690E+04   -8.2133E+04  setid=       0
 node=    26 local x,y,z forces =    9.4501E+03   -1.3637E+04   -9.3470E+04  setid=       0
 node=    27 local x,y,z forces =    3.3274E+04   -6.8657E+03   -5.9287E+04  setid=       0
 node=    28 local x,y,z forces =   -3.2888E+04   -4.3010E+03   -5.9524E+04  setid=       0
 node=    29 local x,y,z forces =   -9.6590E+03   -8.4929E+03   -9.3919E+04  setid=       0
 node=    30 local x,y,z forces =   -1.0111E+04   -8.4296E+03   -8.2774E+04  setid=       0
 node=    31 local x,y,z forces =   -4.0985E+03   -8.4980E+03   -8.4922E+04  setid=       0
 node=    32 local x,y,z forces =   -3.3088E+01   -8.5386E+03   -8.3558E+04  setid=       0
 node=    33 local x,y,z forces =    4.0345E+03   -8.5152E+03   -8.5095E+04  setid=       0
 node=    34 local x,y,z forces =    1.0074E+04   -8.4645E+03   -8.3110E+04  setid=       0
 node=    35 local x,y,z forces =    9.6302E+03   -8.5478E+03   -9.4474E+04  setid=       0
 node=    36 local x,y,z forces =    3.3088E+04   -4.3348E+03   -5.9909E+04  setid=       0
 node=    37 local x,y,z forces =   -3.2715E+04   -2.9862E+03   -5.8859E+04  setid=       0
 node=    38 local x,y,z forces =   -9.7759E+03   -5.8901E+03   -9.2351E+04  setid=       0
 node=    39 local x,y,z forces =   -1.0280E+04   -5.8230E+03   -8.1089E+04  setid=       0
 node=    40 local x,y,z forces =   -4.1892E+03   -5.8423E+03   -8.3295E+04  setid=       0
 node=    41 local x,y,z forces =   -2.8519E+01   -5.8596E+03   -8.1941E+04  setid=       0
 node=    42 local x,y,z forces =    4.1339E+03   -5.8544E+03   -8.3467E+04  setid=       0
 node=    43 local x,y,z forces =    1.0252E+04   -5.8473E+03   -8.1423E+04  setid=       0
 node=    44 local x,y,z forces =    9.7518E+03   -5.9279E+03   -9.2912E+04  setid=       0
 node=    45 local x,y,z forces =    3.2922E+04   -3.0093E+03   -5.9252E+04  setid=       0
 node=    46 local x,y,z forces =   -3.2712E+04   -1.3869E+03   -5.9104E+04  setid=       0
 node=    47 local x,y,z forces =   -9.8441E+03   -2.7297E+03   -9.2704E+04  setid=       0
 node=    48 local x,y,z forces =   -1.0379E+04   -2.6835E+03   -8.1376E+04  setid=       0
 node=    49 local x,y,z forces =   -4.2418E+03   -2.6834E+03   -8.3618E+04  setid=       0
 node=    50 local x,y,z forces =   -2.6268E+01   -2.6877E+03   -8.2270E+04  setid=       0
 node=    51 local x,y,z forces =    4.1907E+03   -2.6891E+03   -8.3792E+04  setid=       0
 node=    52 local x,y,z forces =    1.0354E+04   -2.6949E+03   -8.1714E+04  setid=       0
 node=    53 local x,y,z forces =    9.8221E+03   -2.7474E+03   -9.3276E+04  setid=       0
 node=    54 local x,y,z forces =    3.2923E+04   -1.3977E+03   -5.9507E+04  setid=       0
 node=    55 local x,y,z forces =   -3.2692E+04   -1.8190E-11   -5.8924E+04  setid=       0
 node=    56 local x,y,z forces =   -9.8624E+03   -6.1846E-11   -9.2294E+04  setid=       0
 node=    57 local x,y,z forces =   -1.0410E+04   -9.8225E-11   -8.0933E+04  setid=       0
 node=    58 local x,y,z forces =   -4.2581E+03   -1.0550E-10   -8.3178E+04  setid=       0
 node=    59 local x,y,z forces =   -2.5531E+01   -5.4570E-11   -8.1830E+04  setid=       0
 node=    60 local x,y,z forces =    4.2084E+03   -2.9104E-11   -8.3353E+04  setid=       0
 node=    61 local x,y,z forces =    1.0387E+04   -2.5466E-11   -8.1271E+04  setid=       0
 node=    62 local x,y,z forces =    9.8411E+03   -7.6398E-11   -9.2866E+04  setid=       0
 node=    63 local x,y,z forces =    3.2904E+04   -6.1846E-11   -5.9328E+04  setid=       0
 node=    64 local x,y,z forces =   -3.2712E+04    1.3869E+03   -5.9104E+04  setid=       0
 node=    65 local x,y,z forces =   -9.8441E+03    2.7297E+03   -9.2704E+04  setid=       0
 node=    66 local x,y,z forces =   -1.0379E+04    2.6835E+03   -8.1376E+04  setid=       0
 node=    67 local x,y,z forces =   -4.2418E+03    2.6834E+03   -8.3618E+04  setid=       0
 node=    68 local x,y,z forces =   -2.6268E+01    2.6877E+03   -8.2270E+04  setid=       0
 node=    69 local x,y,z forces =    4.1907E+03    2.6891E+03   -8.3792E+04  setid=       0
 node=    70 local x,y,z forces =    1.0354E+04    2.6949E+03   -8.1714E+04  setid=       0
 node=    71 local x,y,z forces =    9.8221E+03    2.7474E+03   -9.3276E+04  setid=       0
 node=    72 local x,y,z forces =    3.2923E+04    1.3977E+03   -5.9507E+04  setid=       0
 node=    73 local x,y,z forces =   -3.2715E+04    2.9862E+03   -5.8859E+04  setid=       0
 node=    74 local x,y,z forces =   -9.7759E+03    5.8901E+03   -9.2351E+04  setid=       0
 node=    75 local x,y,z forces =   -1.0280E+04    5.8230E+03   -8.1089E+04  setid=       0
 node=    76 local x,y,z forces =   -4.1892E+03    5.8423E+03   -8.3295E+04  setid=       0
 node=    77 local x,y,z forces =   -2.8519E+01    5.8596E+03   -8.1941E+04  setid=       0
 node=    78 local x,y,z forces =    4.1339E+03    5.8544E+03   -8.3467E+04  setid=       0
 node=    79 local x,y,z forces =    1.0252E+04    5.8473E+03   -8.1423E+04  setid=       0
 node=    80 local x,y,z forces =    9.7518E+03    5.9279E+03   -9.2912E+04  setid=       0
 node=    81 local x,y,z forces =    3.2922E+04    3.0093E+03   -5.9252E+04  setid=       0
 node=    82 local x,y,z forces =   -3.2888E+04    4.3010E+03   -5.9524E+04  setid=       0
 node=    83 local x,y,z forces =   -9.6590E+03    8.4929E+03   -9.3919E+04  setid=       0
 node=    84 local x,y,z forces =   -1.0111E+04    8.4296E+03   -8.2774E+04  setid=       0
 node=    85 local x,y,z forces =   -4.0985E+03    8.4980E+03   -8.4922E+04  setid=       0
 node=    86 local x,y,z forces =   -3.3088E+01    8.5386E+03   -8.3558E+04  setid=       0
 node=    87 local x,y,z forces =    4.0345E+03    8.5152E+03   -8.5095E+04  setid=       0
 node=    88 local x,y,z forces =    1.0074E+04    8.4645E+03   -8.3110E+04  setid=       0
 node=    89 local x,y,z forces =    9.6302E+03    8.5478E+03   -9.4474E+04  setid=       0
 node=    90 local x,y,z forces =    3.3088E+04    4.3348E+03   -5.9909E+04  setid=       0
 node=    91 local x,y,z forces =   -3.3084E+04    6.8130E+03   -5.8925E+04  setid=       0
 node=    92 local x,y,z forces =   -9.4868E+03    1.3551E+04   -9.2940E+04  setid=       0
 node=    93 local x,y,z forces =   -9.8662E+03    1.3636E+04   -8.1806E+04  setid=       0
 node=    94 local x,y,z forces =   -3.9862E+03    1.3832E+04   -8.3779E+04  setid=       0
 node=    95 local x,y,z forces =   -4.0650E+01    1.3915E+04   -8.2371E+04  setid=       0
 node=    96 local x,y,z forces =    3.9076E+03    1.3859E+04   -8.3947E+04  setid=       0
 node=    97 local x,y,z forces =    9.8147E+03    1.3690E+04   -8.2133E+04  setid=       0
 node=    98 local x,y,z forces =    9.4501E+03    1.3637E+04   -9.3470E+04  setid=       0
 node=    99 local x,y,z forces =    3.3274E+04    6.8657E+03   -5.9287E+04  setid=       0
 node=   100 local x,y,z forces =   -3.5534E+04    5.5758E+03   -6.5992E+04  setid=       0
 node=   101 local x,y,z forces =   -9.3807E+03    1.1129E+04   -1.0727E+05  setid=       0
 node=   102 local x,y,z forces =   -9.7403E+03    1.1296E+04   -9.6308E+04  setid=       0
 node=   103 local x,y,z forces =   -3.9664E+03    1.1493E+04   -9.8252E+04  setid=       0
 node=   104 local x,y,z forces =   -5.7422E+01    1.1562E+04   -9.6867E+04  setid=       0
 node=   105 local x,y,z forces =    3.8553E+03    1.1515E+04   -9.8445E+04  setid=       0
 node=   106 local x,y,z forces =    9.6558E+03    1.1340E+04   -9.6684E+04  setid=       0
 node=   107 local x,y,z forces =    9.3218E+03    1.1199E+04   -1.0786E+05  setid=       0
 node=   108 local x,y,z forces =    3.5722E+04    5.6202E+03   -6.6375E+04  setid=       0
 node=   109 local x,y,z forces =   -1.9115E+04    1.9622E+04   -4.0202E+04  setid=       0
 node=   110 local x,y,z forces =   -4.7265E+03    3.7271E+04   -6.8154E+04  setid=       0
 node=   111 local x,y,z forces =   -4.8956E+03    3.5619E+04   -6.2863E+04  setid=       0
 node=   112 local x,y,z forces =   -2.0070E+03    3.5670E+04   -6.3956E+04  setid=       0
 node=   113 local x,y,z forces =   -3.5377E+01    3.5604E+04   -6.3323E+04  setid=       0
 node=   114 local x,y,z forces =    1.9385E+03    3.5740E+04   -6.4080E+04  setid=       0
 node=   115 local x,y,z forces =    4.8403E+03    3.5757E+04   -6.3106E+04  setid=       0
 node=   116 local x,y,z forces =    4.6877E+03    3.7479E+04   -6.8523E+04  setid=       0
 node=   117 local x,y,z forces =    1.9212E+04    1.9747E+04   -4.0434E+04  setid=       0
 node=  5851 local x,y,z forces =   -1.9115E+04   -1.9622E+04    0.0000E+00  setid=       0
 node=  5852 local x,y,z forces =   -4.7265E+03   -3.7271E+04    0.0000E+00  setid=       0
 node=  5853 local x,y,z forces =   -4.8956E+03   -3.5619E+04    0.0000E+00  setid=       0
 node=  5854 local x,y,z forces =   -2.0070E+03   -3.5670E+04    0.0000E+00  setid=       0
 node=  5855 local x,y,z forces =   -3.5377E+01   -3.5604E+04    0.0000E+00  setid=       0
 node=  5856 local x,y,z forces =    1.9385E+03   -3.5740E+04    0.0000E+00  setid=       0
 node=  5857 local x,y,z forces =    4.8403E+03   -3.5757E+04    0.0000E+00  setid=       0
 node=  5858 local x,y,z forces =    4.6877E+03   -3.7479E+04    0.0000E+00  setid=       0
 node=  5859 local x,y,z forces =    1.9212E+04   -1.9747E+04    0.0000E+00  setid=       0
 node=  5860 local x,y,z forces =   -3.5534E+04   -5.5758E+03    0.0000E+00  setid=       0
 node=  5861 local x,y,z forces =   -9.3807E+03   -1.1129E+04    0.0000E+00  setid=       0
 node=  5862 local x,y,z forces =   -9.7403E+03   -1.1296E+04    0.0000E+00  setid=       0
 node=  5863 local x,y,z forces =   -3.9664E+03   -1.1493E+04    0.0000E+00  setid=       0
 node=  5864 local x,y,z forces =   -5.7422E+01   -1.1562E+04    0.0000E+00  setid=       0
 node=  5865 local x,y,z forces =    3.8553E+03   -1.1515E+04    0.0000E+00  setid=       0
 node=  5866 local x,y,z forces =    9.6558E+03   -1.1340E+04    0.0000E+00  setid=       0
 node=  5867 local x,y,z forces =    9.3218E+03   -1.1199E+04    0.0000E+00  setid=       0
 node=  5868 local x,y,z forces =    3.5722E+04   -5.6202E+03    0.0000E+00  setid=       0
 node=  5869 local x,y,z forces =   -3.3084E+04   -6.8130E+03    0.0000E+00  setid=       0
 node=  5870 local x,y,z forces =   -9.4868E+03   -1.3551E+04    0.0000E+00  setid=       0
 node=  5871 local x,y,z forces =   -9.8662E+03   -1.3636E+04    0.0000E+00  setid=       0
 node=  5872 local x,y,z forces =   -3.9862E+03   -1.3832E+04    0.0000E+00  setid=       0
 node=  5873 local x,y,z forces =   -4.0650E+01   -1.3915E+04    0.0000E+00  setid=       0
 node=  5874 local x,y,z forces =    3.9076E+03   -1.3859E+04    0.0000E+00  setid=       0
 node=  5875 local x,y,z forces =    9.8147E+03   -1.3690E+04    0.0000E+00  setid=       0
 node=  5876 local x,y,z forces =    9.4501E+03   -1.3637E+04    0.0000E+00  setid=       0
 node=  5877 local x,y,z forces =    3.3274E+04   -6.8657E+03    0.0000E+00  setid=       0
 node=  5878 local x,y,z forces =   -3.2888E+04   -4.3010E+03    0.0000E+00  setid=       0
 node=  5879 local x,y,z forces =   -9.6590E+03   -8.4929E+03    0.0000E+00  setid=       0
 node=  5880 local x,y,z forces =   -1.0111E+04   -8.4296E+03    0.0000E+00  setid=       0
 node=  5881 local x,y,z forces =   -4.0985E+03   -8.4980E+03    0.0000E+00  setid=       0
[...]
 node=    21 local x,y,z forces =   -2.3365E+05    1.7247E+05    1.0659E+06  setid=       0
 node=    22 local x,y,z forces =   -3.2230E+05    6.6068E+04    4.5279E+05  setid=       0
 node=    23 local x,y,z forces =   -3.2869E+05   -4.1538E+04   -2.0981E+05  setid=       0
 node=    24 local x,y,z forces =   -3.0557E+05   -1.4854E+05   -8.7523E+05  setid=       0
 node=    25 local x,y,z forces =   -1.7330E+05   -2.5420E+05   -1.5043E+06  setid=       0
 node=    26 local x,y,z forces =   -1.0043E+05   -3.7658E+05   -2.2762E+06  setid=       0
 node=    27 local x,y,z forces =    8.2580E+05   -2.2552E+05   -1.5761E+06  setid=       0
 node=    28 local x,y,z forces =    6.8349E+05    1.1786E+05    1.2632E+06  setid=       0
 node=    29 local x,y,z forces =   -9.8994E+04    1.9203E+05    1.9100E+06  setid=       0
 node=    30 local x,y,z forces =   -1.7079E+05    1.1371E+05    1.0929E+06  setid=       0
 node=    31 local x,y,z forces =   -2.6031E+05    4.3410E+04    4.6412E+05  setid=       0
 node=    32 local x,y,z forces =   -2.6744E+05   -2.4965E+04   -2.1545E+05  setid=       0
 node=    33 local x,y,z forces =   -2.4890E+05   -9.3167E+04   -8.9681E+05  setid=       0
 node=    34 local x,y,z forces =   -1.1946E+05   -1.6306E+05   -1.5422E+06  setid=       0
 node=    35 local x,y,z forces =   -8.0851E+04   -2.4363E+05   -2.3774E+06  setid=       0
 node=    36 local x,y,z forces =    8.6284E+05   -1.4564E+05   -1.6763E+06  setid=       0
 node=    37 local x,y,z forces =    7.0671E+05    8.0707E+04    1.2974E+06  setid=       0
 node=    38 local x,y,z forces =   -8.0042E+04    1.3163E+05    1.9380E+06  setid=       0
 node=    39 local x,y,z forces =   -1.3878E+05    7.9171E+04    1.0911E+06  setid=       0
 node=    40 local x,y,z forces =   -2.2505E+05    3.0426E+04    4.6397E+05  setid=       0
 node=    41 local x,y,z forces =   -2.2925E+05   -1.7528E+04   -2.1153E+05  setid=       0
 node=    42 local x,y,z forces =   -2.1154E+05   -6.5437E+04   -8.8835E+05  setid=       0
 node=    43 local x,y,z forces =   -8.1733E+04   -1.1433E+05   -1.5315E+06  setid=       0
 node=    44 local x,y,z forces =   -6.1110E+04   -1.6913E+05   -2.3950E+06  setid=       0
 node=    45 local x,y,z forces =    8.9081E+05   -1.0014E+05   -1.7131E+06  setid=       0
 node=    46 local x,y,z forces =    7.2330E+05    3.7885E+04    1.3295E+06  setid=       0
 node=    47 local x,y,z forces =   -6.8408E+04    6.2020E+04    1.9770E+06  setid=       0
 node=    48 local x,y,z forces =   -1.2128E+05    3.7420E+04    1.1054E+06  setid=       0
 node=    49 local x,y,z forces =   -2.0706E+05    1.4576E+04    4.6987E+05  setid=       0
 node=    50 local x,y,z forces =   -2.1062E+05   -7.9720E+03   -2.1328E+05  setid=       0
 node=    51 local x,y,z forces =   -1.9461E+05   -3.0497E+04   -8.9759E+05  setid=       0
 node=    52 local x,y,z forces =   -6.5684E+04   -5.3549E+04   -1.5492E+06  setid=       0
 node=    53 local x,y,z forces =   -5.5793E+04   -7.9269E+04   -2.4376E+06  setid=       0
 node=    54 local x,y,z forces =    9.0706E+05   -4.6921E+04   -1.7525E+06  setid=       0
 node=    55 local x,y,z forces =    7.2758E+05    2.2119E-09    1.3350E+06  setid=       0
 node=    56 local x,y,z forces =   -6.5997E+04    3.4343E-09    1.9810E+06  setid=       0
 node=    57 local x,y,z forces =   -1.1648E+05    3.8999E-09    1.1045E+06  setid=       0
 node=    58 local x,y,z forces =   -2.0152E+05    4.2710E-09    4.6978E+05  setid=       0
 node=    59 local x,y,z forces =   -2.0433E+05    2.3574E-09   -2.1216E+05  setid=       0
 node=    60 local x,y,z forces =   -1.8822E+05    2.2119E-09   -8.9507E+05  setid=       0
 node=    61 local x,y,z forces =   -5.9101E+04    1.0477E-09   -1.5459E+06  setid=       0
 node=    62 local x,y,z forces =   -5.2081E+04   -1.2806E-09   -2.4389E+06  setid=       0
 node=    63 local x,y,z forces =    9.1290E+05   -6.9849E-10   -1.7580E+06  setid=       0
 node=    64 local x,y,z forces =    7.2330E+05   -3.7885E+04    1.3295E+06  setid=       0
 node=    65 local x,y,z forces =   -6.8408E+04   -6.2020E+04    1.9770E+06  setid=       0
 node=    66 local x,y,z forces =   -1.2128E+05   -3.7420E+04    1.1054E+06  setid=       0
 node=    67 local x,y,z forces =   -2.0706E+05   -1.4576E+04    4.6987E+05  setid=       0
 node=    68 local x,y,z forces =   -2.1062E+05    7.9720E+03   -2.1328E+05  setid=       0
 node=    69 local x,y,z forces =   -1.9461E+05    3.0497E+04   -8.9759E+05  setid=       0
 node=    70 local x,y,z forces =   -6.5684E+04    5.3549E+04   -1.5492E+06  setid=       0
 node=    71 local x,y,z forces =   -5.5793E+04    7.9269E+04   -2.4376E+06  setid=       0
 node=    72 local x,y,z forces =    9.0706E+05    4.6921E+04   -1.7525E+06  setid=       0
 node=    73 local x,y,z forces =    7.0671E+05   -8.0707E+04    1.2974E+06  setid=       0
 node=    74 local x,y,z forces =   -8.0042E+04   -1.3163E+05    1.9380E+06  setid=       0
 node=    75 local x,y,z forces =   -1.3878E+05   -7.9171E+04    1.0911E+06  setid=       0
 node=    76 local x,y,z forces =   -2.2505E+05   -3.0426E+04    4.6397E+05  setid=       0
 node=    77 local x,y,z forces =   -2.2925E+05    1.7528E+04   -2.1153E+05  setid=       0
 node=    78 local x,y,z forces =   -2.1154E+05    6.5437E+04   -8.8835E+05  setid=       0
 node=    79 local x,y,z forces =   -8.1733E+04    1.1433E+05   -1.5315E+06  setid=       0
 node=    80 local x,y,z forces =   -6.1110E+04    1.6913E+05   -2.3950E+06  setid=       0
 node=    81 local x,y,z forces =    8.9081E+05    1.0014E+05   -1.7131E+06  setid=       0
 node=    82 local x,y,z forces =    6.8349E+05   -1.1786E+05    1.2632E+06  setid=       0
 node=    83 local x,y,z forces =   -9.8994E+04   -1.9203E+05    1.9100E+06  setid=       0
 node=    84 local x,y,z forces =   -1.7079E+05   -1.1371E+05    1.0929E+06  setid=       0
 node=    85 local x,y,z forces =   -2.6031E+05   -4.3410E+04    4.6412E+05  setid=       0
 node=    86 local x,y,z forces =   -2.6744E+05    2.4965E+04   -2.1545E+05  setid=       0
 node=    87 local x,y,z forces =   -2.4890E+05    9.3167E+04   -8.9681E+05  setid=       0
 node=    88 local x,y,z forces =   -1.1946E+05    1.6306E+05   -1.5422E+06  setid=       0
 node=    89 local x,y,z forces =   -8.0851E+04    2.4363E+05   -2.3774E+06  setid=       0
 node=    90 local x,y,z forces =    8.6284E+05    1.4564E+05   -1.6763E+06  setid=       0
 node=    91 local x,y,z forces =    6.4158E+05   -1.8119E+05    1.1799E+06  setid=       0
 node=    92 local x,y,z forces =   -1.4120E+05   -2.9337E+05    1.8165E+06  setid=       0
 node=    93 local x,y,z forces =   -2.3365E+05   -1.7247E+05    1.0659E+06  setid=       0
 node=    94 local x,y,z forces =   -3.2230E+05   -6.6068E+04    4.5279E+05  setid=       0
 node=    95 local x,y,z forces =   -3.2869E+05    4.1538E+04   -2.0981E+05  setid=       0
 node=    96 local x,y,z forces =   -3.0557E+05    1.4854E+05   -8.7523E+05  setid=       0
 node=    97 local x,y,z forces =   -1.7330E+05    2.5420E+05   -1.5043E+06  setid=       0
 node=    98 local x,y,z forces =   -1.0043E+05    3.7658E+05   -2.2762E+06  setid=       0
 node=    99 local x,y,z forces =    8.2580E+05    2.2552E+05   -1.5761E+06  setid=       0
 node=   100 local x,y,z forces =    6.3839E+05   -1.4785E+05    1.2338E+06  setid=       0
 node=   101 local x,y,z forces =   -2.2222E+05   -2.4607E+05    1.9963E+06  setid=       0
 node=   102 local x,y,z forces =   -3.5410E+05   -1.4746E+05    1.2189E+06  setid=       0
 node=   103 local x,y,z forces =   -4.4945E+05   -6.0535E+04    5.0661E+05  setid=       0
 node=   104 local x,y,z forces =   -4.6604E+05    2.8634E+04   -2.5305E+05  setid=       0
 node=   105 local x,y,z forces =   -4.4472E+05    1.1676E+05   -1.0179E+06  setid=       0
 node=   106 local x,y,z forces =   -3.2103E+05    1.9827E+05   -1.7524E+06  setid=       0
 node=   107 local x,y,z forces =   -1.9760E+05    2.9693E+05   -2.5570E+06  setid=       0
 node=   108 local x,y,z forces =    8.1465E+05    1.9026E+05   -1.6850E+06  setid=       0
 node=   109 local x,y,z forces =    3.2955E+05   -4.2613E+05    7.4390E+05  setid=       0
 node=   110 local x,y,z forces =   -1.4705E+05   -7.1666E+05    1.2457E+06  setid=       0
 node=   111 local x,y,z forces =   -2.2499E+05   -4.4640E+05    7.7757E+05  setid=       0
 node=   112 local x,y,z forces =   -2.7499E+05   -1.7388E+05    3.1703E+05  setid=       0
 node=   113 local x,y,z forces =   -2.8663E+05    1.0202E+05   -1.7053E+05  setid=       0
 node=   114 local x,y,z forces =   -2.7621E+05    3.7690E+05   -6.6265E+05  setid=       0
 node=   115 local x,y,z forces =   -2.1796E+05    6.4320E+05   -1.1403E+06  setid=       0
 node=   116 local x,y,z forces =   -1.3700E+05    9.0700E+05   -1.6272E+06  setid=       0
 node=   117 local x,y,z forces =    4.2235E+05    5.3412E+05   -1.0293E+06  setid=       0
 node=  5851 local x,y,z forces =    3.2959E+05    4.2617E+05    0.0000E+00  setid=       0
 node=  5852 local x,y,z forces =   -1.4705E+05    7.1673E+05    0.0000E+00  setid=       0
 node=  5853 local x,y,z forces =   -2.2499E+05    4.4648E+05    0.0000E+00  setid=       0
 node=  5854 local x,y,z forces =   -2.7499E+05    1.7396E+05    0.0000E+00  setid=       0
 node=  5855 local x,y,z forces =   -2.8663E+05   -1.0194E+05    0.0000E+00  setid=       0
 node=  5856 local x,y,z forces =   -2.7621E+05   -3.7683E+05    0.0000E+00  setid=       0
 node=  5857 local x,y,z forces =   -2.1796E+05   -6.4312E+05    0.0000E+00  setid=       0
 node=  5858 local x,y,z forces =   -1.3700E+05   -9.0692E+05    0.0000E+00  setid=       0
 node=  5859 local x,y,z forces =    4.2231E+05   -5.3408E+05    0.0000E+00  setid=       0
 node=  5860 local x,y,z forces =    6.3847E+05    1.4785E+05    0.0000E+00  setid=       0
 node=  5861 local x,y,z forces =   -2.2222E+05    2.4607E+05    0.0000E+00  setid=       0
 node=  5862 local x,y,z forces =   -3.5410E+05    1.4746E+05    0.0000E+00  setid=       0
 node=  5863 local x,y,z forces =   -4.4945E+05    6.0535E+04    0.0000E+00  setid=       0
 node=  5864 local x,y,z forces =   -4.6604E+05   -2.8634E+04    0.0000E+00  setid=       0
 node=  5865 local x,y,z forces =   -4.4472E+05   -1.1676E+05    0.0000E+00  setid=       0
 node=  5866 local x,y,z forces =   -3.2103E+05   -1.9827E+05    0.0000E+00  setid=       0
 node=  5867 local x,y,z forces =   -1.9760E+05   -2.9693E+05    0.0000E+00  setid=       0
 node=  5868 local x,y,z forces =    8.1458E+05   -1.9026E+05    0.0000E+00  setid=       0
 node=  5869 local x,y,z forces =    6.4166E+05    1.8119E+05    0.0000E+00  setid=       0
 node=  5870 local x,y,z forces =   -1.4120E+05    2.9337E+05    0.0000E+00  setid=       0
 node=  5871 local x,y,z forces =   -2.3364E+05    1.7247E+05    0.0000E+00  setid=       0
 node=  5872 local x,y,z forces =   -3.2230E+05    6.6068E+04    0.0000E+00  setid=       0
 node=  5873 local x,y,z forces =   -3.2869E+05   -4.1538E+04    0.0000E+00  setid=       0
 node=  5874 local x,y,z forces =   -3.0557E+05   -1.4854E+05    0.0000E+00  setid=       0
 node=  5875 local x,y,z forces =   -1.7330E+05   -2.5420E+05    0.0000E+00  setid=       0
 node=  5876 local x,y,z forces =   -1.0043E+05   -3.7658E+05    0.0000E+00  setid=       0
 node=  5877 local x,y,z forces =    8.2572E+05   -2.2552E+05    0.0000E+00  setid=       0
 node=  5878 local x,y,z forces =    6.8357E+05    1.1786E+05    0.0000E+00  setid=       0
 node=  5879 local x,y,z forces =   -9.8994E+04    1.9203E+05    0.0000E+00  setid=       0
 node=  5880 local x,y,z forces =   -1.7078E+05    1.1371E+05    0.0000E+00  setid=       0
 node=  5881 local x,y,z forces =   -2.6031E+05    4.3410E+04    0.0000E+00  setid=       0
 node=  5882 local x,y,z forces =   -2.6744E+05   -2.4965E+04    0.0000E+00  setid=       0
 node=  5883 local x,y,z forces =   -2.4890E+05   -9.3167E+04    0.0000E+00  setid=       0
 node=  5884 local x,y,z forces =   -1.1945E+05   -1.6306E+05    0.0000E+00  setid=       0
 node=  5885 local x,y,z forces =   -8.0850E+04   -2.4363E+05    0.0000E+00  setid=       0
 node=  5886 local x,y,z forces =    8.6276E+05   -1.4564E+05    0.0000E+00  setid=       0
 node=  5887 local x,y,z forces =    7.0679E+05    8.0706E+04    0.0000E+00  setid=       0
 node=  5888 local x,y,z forces =   -8.0042E+04    1.3163E+05    0.0000E+00  setid=       0
 node=  5889 local x,y,z forces =   -1.3878E+05    7.9171E+04    0.0000E+00  setid=       0
 node=  5890 local x,y,z forces =   -2.2505E+05    3.0426E+04    0.0000E+00  setid=       0
 node=  5891 local x,y,z forces =   -2.2925E+05   -1.7528E+04    0.0000E+00  setid=       0
 node=  5892 local x,y,z forces =   -2.1154E+05   -6.5437E+04    0.0000E+00  setid=       0
 node=  5893 local x,y,z forces =   -8.1732E+04   -1.1433E+05    0.0000E+00  setid=       0
 node=  5894 local x,y,z forces =   -6.1109E+04   -1.6913E+05    0.0000E+00  setid=       0
 node=  5895 local x,y,z forces =    8.9073E+05   -1.0014E+05    0.0000E+00  setid=       0
 node=  5896 local x,y,z forces =    7.2337E+05    3.7885E+04    0.0000E+00  setid=       0
 node=  5897 local x,y,z forces =   -6.8407E+04    6.2020E+04    0.0000E+00  setid=       0
 node=  5898 local x,y,z forces =   -1.2128E+05    3.7420E+04    0.0000E+00  setid=       0
 node=  5899 local x,y,z forces =   -2.0706E+05    1.4576E+04    0.0000E+00  setid=       0
 node=  5900 local x,y,z forces =   -2.1062E+05   -7.9720E+03    0.0000E+00  setid=       0
 node=  5901 local x,y,z forces =   -1.9461E+05   -3.0497E+04    0.0000E+00  setid=       0
 node=  5902 local x,y,z forces =   -6.5684E+04   -5.3549E+04    0.0000E+00  setid=       0
 node=  5903 local x,y,z forces =   -5.5792E+04   -7.9269E+04    0.0000E+00  setid=       0
 node=  5904 local x,y,z forces =    9.0698E+05   -4.6921E+04    0.0000E+00  setid=       0
 node=  5905 local x,y,z forces =    7.2766E+05    4.1910E-09    0.0000E+00  setid=       0
 node=  5906 local x,y,z forces =   -6.5996E+04    3.2014E-09    0.0000E+00  setid=       0
 node=  5907 local x,y,z forces =   -1.1648E+05    8.7311E-10    0.0000E+00  setid=       0
 node=  5908 local x,y,z forces =   -2.0152E+05    3.1432E-09    0.0000E+00  setid=       0
 node=  5909 local x,y,z forces =   -2.0433E+05    3.2014E-10    0.0000E+00  setid=       0
 node=  5910 local x,y,z forces =   -1.8822E+05    1.6880E-09    0.0000E+00  setid=       0
 node=  5911 local x,y,z forces =   -5.9100E+04    1.0477E-09    0.0000E+00  setid=       0
 node=  5912 local x,y,z forces =   -5.2080E+04   -2.3283E-09    0.0000E+00  setid=       0
 node=  5913 local x,y,z forces =    9.1282E+05   -2.0955E-09    0.0000E+00  setid=       0
 node=  5914 local x,y,z forces =    7.2337E+05   -3.7885E+04    0.0000E+00  setid=       0
 node=  5915 local x,y,z forces =   -6.8407E+04   -6.2020E+04    0.0000E+00  setid=       0
 node=  5916 local x,y,z forces =   -1.2128E+05   -3.7420E+04    0.0000E+00  setid=       0
 node=  5917 local x,y,z forces =   -2.0706E+05   -1.4576E+04    0.0000E+00  setid=       0
 node=  5918 local x,y,z forces =   -2.1062E+05    7.9720E+03    0.0000E+00  setid=       0
 node=  5919 local x,y,z forces =   -1.9461E+05    3.0497E+04    0.0000E+00  setid=       0
 node=  5920 local x,y,z forces =   -6.5684E+04    5.3549E+04    0.0000E+00  setid=       0
 node=  5921 local x,y,z forces =   -5.5792E+04    7.9269E+04    0.0000E+00  setid=       0
 node=  5922 local x,y,z forces =    9.0698E+05    4.6921E+04    0.0000E+00  setid=       0
 node=  5923 local x,y,z forces =    7.0679E+05   -8.0706E+04    0.0000E+00  setid=       0
 node=  5924 local x,y,z forces =   -8.0042E+04   -1.3163E+05    0.0000E+00  setid=       0
 node=  5925 local x,y,z forces =   -1.3878E+05   -7.9171E+04    0.0000E+00  setid=       0
 node=  5926 local x,y,z forces =   -2.2505E+05   -3.0426E+04    0.0000E+00  setid=       0
 node=  5927 local x,y,z forces =   -2.2925E+05    1.7528E+04    0.0000E+00  setid=       0
 node=  5928 local x,y,z forces =   -2.1154E+05    6.5437E+04    0.0000E+00  setid=       0
 node=  5929 local x,y,z forces =   -8.1732E+04    1.1433E+05    0.0000E+00  setid=       0
 node=  5930 local x,y,z forces =   -6.1109E+04    1.6913E+05    0.0000E+00  setid=       0
 node=  5931 local x,y,z forces =    8.9073E+05    1.0014E+05    0.0000E+00  setid=       0
 node=  5932 local x,y,z forces =    6.8357E+05   -1.1786E+05    0.0000E+00  setid=       0
 node=  5933 local x,y,z forces =   -9.8994E+04   -1.9203E+05    0.0000E+00  setid=       0
 node=  5934 local x,y,z forces =   -1.7078E+05   -1.1371E+05    0.0000E+00  setid=       0
 node=  5935 local x,y,z forces =   -2.6031E+05   -4.3410E+04    0.0000E+00  setid=       0
 node=  5936 local x,y,z forces =   -2.6744E+05    2.4965E+04    0.0000E+00  setid=       0
 node=  5937 local x,y,z forces =   -2.4890E+05    9.3167E+04    0.0000E+00  setid=       0
 node=  5938 local x,y,z forces =   -1.1945E+05    1.6306E+05    0.0000E+00  setid=       0
 node=  5939 local x,y,z forces =   -8.0850E+04    2.4363E+05    0.0000E+00  setid=       0
 node=  5940 local x,y,z forces =    8.6276E+05    1.4564E+05    0.0000E+00  setid=       0
 node=  5941 local x,y,z forces =    6.4166E+05   -1.8119E+05    0.0000E+00  setid=       0
 node=  5942 local x,y,z forces =   -1.4120E+05   -2.9337E+05    0.0000E+00  setid=       0
 node=  5943 local x,y,z forces =   -2.3364E+05   -1.7247E+05    0.0000E+00  setid=       0
 node=  5944 local x,y,z forces =   -3.2230E+05   -6.6068E+04    0.0000E+00  setid=       0
 node=  5945 local x,y,z forces =   -3.2869E+05    4.1538E+04    0.0000E+00  setid=       0
 node=  5946 local x,y,z forces =   -3.0557E+05    1.4854E+05    0.0000E+00  setid=       0
 node=  5947 local x,y,z forces =   -1.7330E+05    2.5420E+05    0.0000E+00  setid=       0
 node=  5948 local x,y,z forces =   -1.0043E+05    3.7658E+05    0.0000E+00  setid=       0
 node=  5949 local x,y,z forces =    8.2572E+05    2.2552E+05    0.0000E+00  setid=       0
 node=  5950 local x,y,z forces =    6.3847E+05   -1.4785E+05    0.0000E+00  setid=       0
 node=  5951 local x,y,z forces =   -2.2222E+05   -2.4607E+05    0.0000E+00  setid=       0
 node=  5952 local x,y,z forces =   -3.5410E+05   -1.4746E+05    0.0000E+00  setid=       0
 node=  5953 local x,y,z forces =   -4.4945E+05   -6.0535E+04    0.0000E+00  setid=       0
 node=  5954 local x,y,z forces =   -4.6604E+05    2.8634E+04    0.0000E+00  setid=       0
 node=  5955 local x,y,z forces =   -4.4472E+05    1.1676E+05    0.0000E+00  setid=       0
 node=  5956 local x,y,z forces =   -3.2103E+05    1.9827E+05    0.0000E+00  setid=       0
 node=  5957 local x,y,z forces =   -1.9760E+05    2.9693E+05    0.0000E+00  setid=       0
 node=  5958 local x,y,z forces =    8.1458E+05    1.9026E+05    0.0000E+00  setid=       0
 node=  5959 local x,y,z forces =    3.2959E+05   -4.2617E+05    0.0000E+00  setid=       0
 node=  5960 local x,y,z forces =   -1.4705E+05   -7.1673E+05    0.0000E+00  setid=       0
 node=  5961 local x,y,z forces =   -2.2499E+05   -4.4648E+05    0.0000E+00  setid=       0
 node=  5962 local x,y,z forces =   -2.7499E+05   -1.7396E+05    0.0000E+00  setid=       0
 node=  5963 local x,y,z forces =   -2.8663E+05    1.0194E+05    0.0000E+00  setid=       0
 node=  5964 local x,y,z forces =   -2.7621E+05    3.7683E+05    0.0000E+00  setid=       0
 node=  5965 local x,y,z forces =   -2.1796E+05    6.4312E+05    0.0000E+00  setid=       0
 node=  5966 local x,y,z forces =   -1.3700E+05    9.0692E+05    0.0000E+00  setid=       0
 node=  5967 local x,y,z forces =    4.2231E+05    5.3408E+05    0.0000E+00  setid=       0
             force resultants   =    4.1621E+02   -5.5879E-08   -2.5314E+07
