 400x600                                                                 
                         ls-dyna smp.123264 d           date 01/12/2018

{BEGIN LEGEND}
 Entity #        Title
        0     bottom                                                                
        0     top                                                                   
        0     middle                                                                
{END LEGEND}

 single point constraint forces

 output at time =   0.00000E+00
 node=     3 local x,y,z forces =    0.0000E+00    0.0000E+00    0.0000E+00  setid=       0
 node=     8 local x,y,z forces =    0.0000E+00    0.0000E+00    0.0000E+00  setid=       0
 node=    13 local x,y,z forces =    0.0000E+00    0.0000E+00    0.0000E+00  setid=       0
 node=    18 local x,y,z forces =    0.0000E+00    0.0000E+00    0.0000E+00  setid=       0
 node=    23 local x,y,z forces =    0.0000E+00    0.0000E+00    0.0000E+00  setid=       0
 node=    28 local x,y,z forces =    0.0000E+00    0.0000E+00    0.0000E+00  setid=       0
 node=    33 local x,y,z forces =    0.0000E+00    0.0000E+00    0.0000E+00  setid=       0
 node=    38 local x,y,z forces =    0.0000E+00    0.0000E+00    0.0000E+00  setid=       0
 node=    43 local x,y,z forces =    0.0000E+00    0.0000E+00    0.0000E+00  setid=       0
 node=    48 local x,y,z forces =    0.0000E+00    0.0000E+00    0.0000E+00  setid=       0
 node=    53 local x,y,z forces =    0.0000E+00    0.0000E+00    0.0000E+00  setid=       0
 node=    58 local x,y,z forces =    0.0000E+00    0.0000E+00    0.0000E+00  setid=       0
 node=    63 local x,y,z forces =    0.0000E+00    0.0000E+00    0.0000E+00  setid=       0
 node=    68 local x,y,z forces =    0.0000E+00    0.0000E+00    0.0000E+00  setid=       0
 node=    73 local x,y,z forces =    0.0000E+00    0.0000E+00    0.0000E+00  setid=       0
 node=    78 local x,y,z forces =    0.0000E+00    0.0000E+00    0.0000E+00  setid=       0
 node=    83 local x,y,z forces =    0.0000E+00    0.0000E+00    0.0000E+00  setid=       0
 node=    88 local x,y,z forces =    0.0000E+00    0.0000E+00    0.0000E+00  setid=       0
 node=    93 local x,y,z forces =    0.0000E+00    0.0000E+00    0.0000E+00  setid=       0
 node=    98 local x,y,z forces =    0.0000E+00    0.0000E+00    0.0000E+00  setid=       0
 node=   103 local x,y,z forces =    0.0000E+00    0.0000E+00    0.0000E+00  setid=       0
 node=   108 local x,y,z forces =    0.0000E+00    0.0000E+00    0.0000E+00  setid=       0
 node=   113 local x,y,z forces =    0.0000E+00    0.0000E+00    0.0000E+00  setid=       0
 node=   118 local x,y,z forces =    0.0000E+00    0.0000E+00    0.0000E+00  setid=       0
 node=   123 local x,y,z forces =    0.0000E+00    0.0000E+00    0.0000E+00  setid=       0
 node=  6253 local x,y,z forces =    0.0000E+00    0.0000E+00    0.0000E+00  setid=       0
 node=  6258 local x,y,z forces =    0.0000E+00    0.0000E+00    0.0000E+00  setid=       0
 node=  6263 local x,y,z forces =    0.0000E+00    0.0000E+00    0.0000E+00  setid=       0
 node=  6268 local x,y,z forces =    0.0000E+00    0.0000E+00    0.0000E+00  setid=       0
 node=  6273 local x,y,z forces =    0.0000E+00    0.0000E+00    0.0000E+00  setid=       0
 node=  6278 local x,y,z forces =    0.0000E+00    0.0000E+00    0.0000E+00  setid=       0
 node=  6283 local x,y,z forces =    0.0000E+00    0.0000E+00    0.0000E+00  setid=       0
 node=  6288 local x,y,z forces =    0.0000E+00    0.0000E+00    0.0000E+00  setid=       0
 node=  6293 local x,y,z forces =    0.0000E+00    0.0000E+00    0.0000E+00  setid=       0
 node=  6298 local x,y,z forces =    0.0000E+00    0.0000E+00    0.0000E+00  setid=       0
 node=  6303 local x,y,z forces =    0.0000E+00    0.0000E+00    0.0000E+00  setid=       0
 node=  6308 local x,y,z forces =    0.0000E+00    0.0000E+00    0.0000E+00  setid=       0
 node=  6313 local x,y,z forces =    0.0000E+00    0.0000E+00    0.0000E+00  setid=       0
 node=  6318 local x,y,z forces =    0.0000E+00    0.0000E+00    0.0000E+00  setid=       0
 node=  6323 local x,y,z forces =    0.0000E+00    0.0000E+00    0.0000E+00  setid=       0
 node=  6328 local x,y,z forces =    0.0000E+00    0.0000E+00    0.0000E+00  setid=       0
 node=  6333 local x,y,z forces =    0.0000E+00    0.0000E+00    0.0000E+00  setid=       0
 node=  6338 local x,y,z forces =    0.0000E+00    0.0000E+00    0.0000E+00  setid=       0
 node=  6343 local x,y,z forces =    0.0000E+00    0.0000E+00    0.0000E+00  setid=       0
 node=  6348 local x,y,z forces =    0.0000E+00    0.0000E+00    0.0000E+00  setid=       0
 node=  6353 local x,y,z forces =    0.0000E+00    0.0000E+00    0.0000E+00  setid=       0
 node=  6358 local x,y,z forces =    0.0000E+00    0.0000E+00    0.0000E+00  setid=       0
 node=  6363 local x,y,z forces =    0.0000E+00    0.0000E+00    0.0000E+00  setid=       0
 node=  6368 local x,y,z forces =    0.0000E+00    0.0000E+00    0.0000E+00  setid=       0
 node=  6373 local x,y,z forces =    0.0000E+00    0.0000E+00    0.0000E+00  setid=       0
             force resultants   =    0.0000E+00    0.0000E+00    0.0000E+00
 output at time =   5.00000E-04
 node=     3 local x,y,z forces =    1.9451E+01   -3.8269E+04   -1.2953E+05  setid=       0
 node=     8 local x,y,z forces =    2.9640E+01   -3.5494E+04   -2.4723E+05  setid=       0
 node=    13 local x,y,z forces =    1.9679E+01   -2.6880E+04   -2.3988E+05  setid=       0
 node=    18 local x,y,z forces =    1.3599E+01   -2.2144E+04   -2.3584E+05  setid=       0
 node=    23 local x,y,z forces =    9.9954E+00   -2.0449E+04   -2.3258E+05  setid=       0
 node=    28 local x,y,z forces =    8.2884E+00   -1.7594E+04   -2.3045E+05  setid=       0
 node=    33 local x,y,z forces =    7.2484E+00   -1.5233E+04   -2.2889E+05  setid=       0
 node=    38 local x,y,z forces =    6.7243E+00   -1.2520E+04   -2.2783E+05  setid=       0
 node=    43 local x,y,z forces =    6.3904E+00   -1.0025E+04   -2.2704E+05  setid=       0
 node=    48 local x,y,z forces =    6.2197E+00   -7.4607E+03   -2.2651E+05  setid=       0
 node=    53 local x,y,z forces =    6.1106E+00   -4.9738E+03   -2.2614E+05  setid=       0
 node=    58 local x,y,z forces =    6.0640E+00   -2.4773E+03   -2.2594E+05  setid=       0
 node=    63 local x,y,z forces =    6.0441E+00    8.7311E-11   -2.2587E+05  setid=       0
 node=    68 local x,y,z forces =    6.0640E+00    2.4773E+03   -2.2594E+05  setid=       0
 node=    73 local x,y,z forces =    6.1106E+00    4.9738E+03   -2.2614E+05  setid=       0
 node=    78 local x,y,z forces =    6.2197E+00    7.4607E+03   -2.2651E+05  setid=       0
 node=    83 local x,y,z forces =    6.3904E+00    1.0025E+04   -2.2704E+05  setid=       0
 node=    88 local x,y,z forces =    6.7243E+00    1.2520E+04   -2.2783E+05  setid=       0
 node=    93 local x,y,z forces =    7.2484E+00    1.5233E+04   -2.2889E+05  setid=       0
 node=    98 local x,y,z forces =    8.2884E+00    1.7594E+04   -2.3045E+05  setid=       0
 node=   103 local x,y,z forces =    9.9954E+00    2.0449E+04   -2.3258E+05  setid=       0
 node=   108 local x,y,z forces =    1.3599E+01    2.2144E+04   -2.3584E+05  setid=       0
 node=   113 local x,y,z forces =    1.9679E+01    2.6880E+04   -2.3988E+05  setid=       0
 node=   118 local x,y,z forces =    2.9640E+01    3.5494E+04   -2.4723E+05  setid=       0
 node=   123 local x,y,z forces =    1.9451E+01    3.8269E+04   -1.2953E+05  setid=       0
 node=  6253 local x,y,z forces =    1.9451E+01   -3.8269E+04    0.0000E+00  setid=       0
 node=  6258 local x,y,z forces =    2.9640E+01   -3.5494E+04    0.0000E+00  setid=       0
 node=  6263 local x,y,z forces =    1.9679E+01   -2.6880E+04    0.0000E+00  setid=       0
 node=  6268 local x,y,z forces =    1.3599E+01   -2.2144E+04    0.0000E+00  setid=       0
 node=  6273 local x,y,z forces =    9.9954E+00   -2.0449E+04    0.0000E+00  setid=       0
 node=  6278 local x,y,z forces =    8.2884E+00   -1.7594E+04    0.0000E+00  setid=       0
 node=  6283 local x,y,z forces =    7.2483E+00   -1.5233E+04    0.0000E+00  setid=       0
 node=  6288 local x,y,z forces =    6.7243E+00   -1.2520E+04    0.0000E+00  setid=       0
 node=  6293 local x,y,z forces =    6.3904E+00   -1.0025E+04    0.0000E+00  setid=       0
 node=  6298 local x,y,z forces =    6.2197E+00   -7.4607E+03    0.0000E+00  setid=       0
 node=  6303 local x,y,z forces =    6.1106E+00   -4.9738E+03    0.0000E+00  setid=       0
 node=  6308 local x,y,z forces =    6.0639E+00   -2.4773E+03    0.0000E+00  setid=       0
 node=  6313 local x,y,z forces =    6.0441E+00   -3.0559E-10    0.0000E+00  setid=       0
 node=  6318 local x,y,z forces =    6.0639E+00    2.4773E+03    0.0000E+00  setid=       0
 node=  6323 local x,y,z forces =    6.1106E+00    4.9738E+03    0.0000E+00  setid=       0
 node=  6328 local x,y,z forces =    6.2197E+00    7.4607E+03    0.0000E+00  setid=       0
 node=  6333 local x,y,z forces =    6.3904E+00    1.0025E+04    0.0000E+00  setid=       0
 node=  6338 local x,y,z forces =    6.7243E+00    1.2520E+04    0.0000E+00  setid=       0
 node=  6343 local x,y,z forces =    7.2483E+00    1.5233E+04    0.0000E+00  setid=       0
 node=  6348 local x,y,z forces =    8.2884E+00    1.7594E+04    0.0000E+00  setid=       0
 node=  6353 local x,y,z forces =    9.9954E+00    2.0449E+04    0.0000E+00  setid=       0
 node=  6358 local x,y,z forces =    1.3599E+01    2.2144E+04    0.0000E+00  setid=       0
 node=  6363 local x,y,z forces =    1.9679E+01    2.6880E+04    0.0000E+00  setid=       0
 node=  6368 local x,y,z forces =    2.9640E+01    3.5494E+04    0.0000E+00  setid=       0
 node=  6373 local x,y,z forces =    1.9451E+01    3.8269E+04    0.0000E+00  setid=       0
             force resultants   =    5.6973E+02    2.5466E-09   -5.5816E+06
 output at time =   1.00000E-03
 node=     3 local x,y,z forces =    1.0338E+04   -4.0791E+04   -1.3861E+05  setid=       0
 node=     8 local x,y,z forces =    1.2681E+04   -3.7835E+04   -2.6424E+05  setid=       0
 node=    13 local x,y,z forces =    5.4649E+03   -2.8665E+04   -2.5609E+05  setid=       0
 node=    18 local x,y,z forces =    1.0687E+03   -2.3622E+04   -2.5158E+05  setid=       0
 node=    23 local x,y,z forces =   -1.4797E+03   -2.1819E+04   -2.4800E+05  setid=       0
 node=    28 local x,y,z forces =   -2.6615E+03   -1.8777E+04   -2.4569E+05  setid=       0
 node=    33 local x,y,z forces =   -3.3807E+03   -1.6260E+04   -2.4400E+05  setid=       0
 node=    38 local x,y,z forces =   -3.7250E+03   -1.3367E+04   -2.4286E+05  setid=       0
 node=    43 local x,y,z forces =   -3.9412E+03   -1.0704E+04   -2.4202E+05  setid=       0
 node=    48 local x,y,z forces =   -4.0423E+03   -7.9674E+03   -2.4145E+05  setid=       0
 node=    53 local x,y,z forces =   -4.1072E+03   -5.3120E+03   -2.4106E+05  setid=       0
 node=    58 local x,y,z forces =   -4.1314E+03   -2.6459E+03   -2.4085E+05  setid=       0
 node=    63 local x,y,z forces =   -4.1434E+03    3.6380E-10   -2.4077E+05  setid=       0
 node=    68 local x,y,z forces =   -4.1314E+03    2.6459E+03   -2.4085E+05  setid=       0
 node=    73 local x,y,z forces =   -4.1072E+03    5.3120E+03   -2.4106E+05  setid=       0
 node=    78 local x,y,z forces =   -4.0423E+03    7.9674E+03   -2.4145E+05  setid=       0
 node=    83 local x,y,z forces =   -3.9412E+03    1.0704E+04   -2.4202E+05  setid=       0
 node=    88 local x,y,z forces =   -3.7250E+03    1.3367E+04   -2.4286E+05  setid=       0
 node=    93 local x,y,z forces =   -3.3807E+03    1.6260E+04   -2.4400E+05  setid=       0
 node=    98 local x,y,z forces =   -2.6615E+03    1.8777E+04   -2.4569E+05  setid=       0
 node=   103 local x,y,z forces =   -1.4797E+03    2.1819E+04   -2.4800E+05  setid=       0
 node=   108 local x,y,z forces =    1.0687E+03    2.3622E+04   -2.5158E+05  setid=       0
 node=   113 local x,y,z forces =    5.4649E+03    2.8665E+04   -2.5609E+05  setid=       0
 node=   118 local x,y,z forces =    1.2681E+04    3.7835E+04   -2.6424E+05  setid=       0
 node=   123 local x,y,z forces =    1.0338E+04    4.0791E+04   -1.3861E+05  setid=       0
 node=  6253 local x,y,z forces =    1.0338E+04   -4.0791E+04    0.0000E+00  setid=       0
 node=  6258 local x,y,z forces =    1.2681E+04   -3.7835E+04    0.0000E+00  setid=       0
 node=  6263 local x,y,z forces =    5.4649E+03   -2.8665E+04    0.0000E+00  setid=       0
 node=  6268 local x,y,z forces =    1.0687E+03   -2.3622E+04    0.0000E+00  setid=       0
 node=  6273 local x,y,z forces =   -1.4797E+03   -2.1819E+04    0.0000E+00  setid=       0
 node=  6278 local x,y,z forces =   -2.6615E+03   -1.8777E+04    0.0000E+00  setid=       0
 node=  6283 local x,y,z forces =   -3.3807E+03   -1.6260E+04    0.0000E+00  setid=       0
 node=  6288 local x,y,z forces =   -3.7250E+03   -1.3367E+04    0.0000E+00  setid=       0
 node=  6293 local x,y,z forces =   -3.9412E+03   -1.0704E+04    0.0000E+00  setid=       0
 node=  6298 local x,y,z forces =   -4.0423E+03   -7.9674E+03    0.0000E+00  setid=       0
 node=  6303 local x,y,z forces =   -4.1072E+03   -5.3120E+03    0.0000E+00  setid=       0
 node=  6308 local x,y,z forces =   -4.1314E+03   -2.6459E+03    0.0000E+00  setid=       0
 node=  6313 local x,y,z forces =   -4.1434E+03    9.7862E-10    0.0000E+00  setid=       0
 node=  6318 local x,y,z forces =   -4.1314E+03    2.6459E+03    0.0000E+00  setid=       0
 node=  6323 local x,y,z forces =   -4.1072E+03    5.3120E+03    0.0000E+00  setid=       0
 node=  6328 local x,y,z forces =   -4.0423E+03    7.9674E+03    0.0000E+00  setid=       0
 node=  6333 local x,y,z forces =   -3.9412E+03    1.0704E+04    0.0000E+00  setid=       0
 node=  6338 local x,y,z forces =   -3.7250E+03    1.3367E+04    0.0000E+00  setid=       0
 node=  6343 local x,y,z forces =   -3.3807E+03    1.6260E+04    0.0000E+00  setid=       0
 node=  6348 local x,y,z forces =   -2.6615E+03    1.8777E+04    0.0000E+00  setid=       0
 node=  6353 local x,y,z forces =   -1.4797E+03    2.1819E+04    0.0000E+00  setid=       0
 node=  6358 local x,y,z forces =    1.0687E+03    2.3622E+04    0.0000E+00  setid=       0
 node=  6363 local x,y,z forces =    5.4649E+03    2.8665E+04    0.0000E+00  setid=       0
 node=  6368 local x,y,z forces =    1.2681E+04    3.7835E+04    0.0000E+00  setid=       0
 node=  6373 local x,y,z forces =    1.0338E+04    4.0791E+04    0.0000E+00  setid=       0
             force resultants   =    4.6463E+01   -7.5088E-09   -5.9537E+06
 output at time =   1.50000E-03
 node=     3 local x,y,z forces =    1.4853E+04   -4.0586E+04   -1.3902E+05  setid=       0
 node=     8 local x,y,z forces =    1.8217E+04   -3.7827E+04   -2.6469E+05  setid=       0
 node=    13 local x,y,z forces =    7.8476E+03   -2.8674E+04   -2.5621E+05  setid=       0
 node=    18 local x,y,z forces =    1.5299E+03   -2.3638E+04   -2.5150E+05  setid=       0
 node=    23 local x,y,z forces =   -2.1326E+03   -2.1838E+04   -2.4781E+05  setid=       0
 node=    28 local x,y,z forces =   -3.8313E+03   -1.8798E+04   -2.4545E+05  setid=       0
 node=    33 local x,y,z forces =   -4.8654E+03   -1.6280E+04   -2.4374E+05  setid=       0
 node=    38 local x,y,z forces =   -5.3606E+03   -1.3387E+04   -2.4259E+05  setid=       0
 node=    43 local x,y,z forces =   -5.6717E+03   -1.0722E+04   -2.4174E+05  setid=       0
 node=    48 local x,y,z forces =   -5.8173E+03   -7.9814E+03   -2.4118E+05  setid=       0
 node=    53 local x,y,z forces =   -5.9108E+03   -5.3219E+03   -2.4079E+05  setid=       0
 node=    58 local x,y,z forces =   -5.9457E+03   -2.6510E+03   -2.4058E+05  setid=       0
 node=    63 local x,y,z forces =   -5.9630E+03   -1.7826E-10   -2.4050E+05  setid=       0
 node=    68 local x,y,z forces =   -5.9457E+03    2.6510E+03   -2.4058E+05  setid=       0
 node=    73 local x,y,z forces =   -5.9108E+03    5.3219E+03   -2.4079E+05  setid=       0
 node=    78 local x,y,z forces =   -5.8173E+03    7.9814E+03   -2.4118E+05  setid=       0
 node=    83 local x,y,z forces =   -5.6717E+03    1.0722E+04   -2.4174E+05  setid=       0
 node=    88 local x,y,z forces =   -5.3606E+03    1.3387E+04   -2.4259E+05  setid=       0
 node=    93 local x,y,z forces =   -4.8654E+03    1.6280E+04   -2.4374E+05  setid=       0
 node=    98 local x,y,z forces =   -3.8313E+03    1.8798E+04   -2.4545E+05  setid=       0
 node=   103 local x,y,z forces =   -2.1326E+03    2.1838E+04   -2.4781E+05  setid=       0
 node=   108 local x,y,z forces =    1.5299E+03    2.3638E+04   -2.5150E+05  setid=       0
 node=   113 local x,y,z forces =    7.8476E+03    2.8674E+04   -2.5621E+05  setid=       0
 node=   118 local x,y,z forces =    1.8217E+04    3.7827E+04   -2.6469E+05  setid=       0
 node=   123 local x,y,z forces =    1.4853E+04    4.0586E+04   -1.3902E+05  setid=       0
 node=  6253 local x,y,z forces =    1.4840E+04   -4.0615E+04    0.0000E+00  setid=       0
 node=  6258 local x,y,z forces =    1.8199E+04   -3.7827E+04    0.0000E+00  setid=       0
 node=  6263 local x,y,z forces =    7.8372E+03   -2.8673E+04    0.0000E+00  setid=       0
 node=  6268 local x,y,z forces =    1.5240E+03   -2.3637E+04    0.0000E+00  setid=       0
 node=  6273 local x,y,z forces =   -2.1360E+03   -2.1837E+04    0.0000E+00  setid=       0
 node=  6278 local x,y,z forces =   -3.8337E+03   -1.8797E+04    0.0000E+00  setid=       0
 node=  6283 local x,y,z forces =   -4.8671E+03   -1.6280E+04    0.0000E+00  setid=       0
 node=  6288 local x,y,z forces =   -5.3620E+03   -1.3387E+04    0.0000E+00  setid=       0
 node=  6293 local x,y,z forces =   -5.6730E+03   -1.0721E+04    0.0000E+00  setid=       0
 node=  6298 local x,y,z forces =   -5.8186E+03   -7.9812E+03    0.0000E+00  setid=       0
 node=  6303 local x,y,z forces =   -5.9120E+03   -5.3217E+03    0.0000E+00  setid=       0
 node=  6308 local x,y,z forces =   -5.9469E+03   -2.6509E+03    0.0000E+00  setid=       0
 node=  6313 local x,y,z forces =   -5.9642E+03   -6.2209E-10    0.0000E+00  setid=       0
 node=  6318 local x,y,z forces =   -5.9469E+03    2.6509E+03    0.0000E+00  setid=       0
 node=  6323 local x,y,z forces =   -5.9120E+03    5.3217E+03    0.0000E+00  setid=       0
 node=  6328 local x,y,z forces =   -5.8186E+03    7.9812E+03    0.0000E+00  setid=       0
 node=  6333 local x,y,z forces =   -5.6730E+03    1.0721E+04    0.0000E+00  setid=       0
 node=  6338 local x,y,z forces =   -5.3620E+03    1.3387E+04    0.0000E+00  setid=       0
 node=  6343 local x,y,z forces =   -4.8671E+03    1.6280E+04    0.0000E+00  setid=       0
 node=  6348 local x,y,z forces =   -3.8337E+03    1.8797E+04    0.0000E+00  setid=       0
 node=  6353 local x,y,z forces =   -2.1360E+03    2.1837E+04    0.0000E+00  setid=       0
 node=  6358 local x,y,z forces =    1.5240E+03    2.3637E+04    0.0000E+00  setid=       0
 node=  6363 local x,y,z forces =    7.8372E+03    2.8673E+04    0.0000E+00  setid=       0
 node=  6368 local x,y,z forces =    1.8199E+04    3.7827E+04    0.0000E+00  setid=       0
 node=  6373 local x,y,z forces =    1.4840E+04    4.0615E+04    0.0000E+00  setid=       0
             force resultants   =   -4.0312E+02   -4.0018E-09   -5.9511E+06
 output at time =   2.00000E-03
 node=     3 local x,y,z forces =    1.8261E+04   -4.0736E+04   -1.3967E+05  setid=       0
 node=     8 local x,y,z forces =    2.2401E+04   -3.7829E+04   -2.6560E+05  setid=       0
 node=    13 local x,y,z forces =    9.6558E+03   -2.8687E+04   -2.5678E+05  setid=       0
 node=    18 local x,y,z forces =    1.8897E+03   -2.3656E+04   -2.5187E+05  setid=       0
 node=    23 local x,y,z forces =   -2.6131E+03   -2.1859E+04   -2.4806E+05  setid=       0
 node=    28 local x,y,z forces =   -4.7021E+03   -1.8820E+04   -2.4565E+05  setid=       0
 node=    33 local x,y,z forces =   -5.9741E+03   -1.6303E+04   -2.4391E+05  setid=       0
 node=    38 local x,y,z forces =   -6.5837E+03   -1.3408E+04   -2.4275E+05  setid=       0
 node=    43 local x,y,z forces =   -6.9669E+03   -1.0740E+04   -2.4190E+05  setid=       0
 node=    48 local x,y,z forces =   -7.1465E+03   -7.9964E+03   -2.4133E+05  setid=       0
 node=    53 local x,y,z forces =   -7.2618E+03   -5.3323E+03   -2.4094E+05  setid=       0
 node=    58 local x,y,z forces =   -7.3050E+03   -2.6564E+03   -2.4073E+05  setid=       0
 node=    63 local x,y,z forces =   -7.3264E+03   -1.6371E-10   -2.4066E+05  setid=       0
 node=    68 local x,y,z forces =   -7.3050E+03    2.6564E+03   -2.4073E+05  setid=       0
 node=    73 local x,y,z forces =   -7.2618E+03    5.3323E+03   -2.4094E+05  setid=       0
 node=    78 local x,y,z forces =   -7.1465E+03    7.9964E+03   -2.4133E+05  setid=       0
 node=    83 local x,y,z forces =   -6.9669E+03    1.0740E+04   -2.4190E+05  setid=       0
 node=    88 local x,y,z forces =   -6.5837E+03    1.3408E+04   -2.4275E+05  setid=       0
 node=    93 local x,y,z forces =   -5.9741E+03    1.6303E+04   -2.4391E+05  setid=       0
 node=    98 local x,y,z forces =   -4.7021E+03    1.8820E+04   -2.4565E+05  setid=       0
 node=   103 local x,y,z forces =   -2.6131E+03    2.1859E+04   -2.4806E+05  setid=       0
 node=   108 local x,y,z forces =    1.8897E+03    2.3656E+04   -2.5187E+05  setid=       0
 node=   113 local x,y,z forces =    9.6558E+03    2.8687E+04   -2.5678E+05  setid=       0
 node=   118 local x,y,z forces =    2.2401E+04    3.7829E+04   -2.6560E+05  setid=       0
 node=   123 local x,y,z forces =    1.8261E+04    4.0736E+04   -1.3967E+05  setid=       0
 node=  6253 local x,y,z forces =    1.8251E+04   -4.0715E+04    0.0000E+00  setid=       0
 node=  6258 local x,y,z forces =    2.2381E+04   -3.7829E+04    0.0000E+00  setid=       0
 node=  6263 local x,y,z forces =    9.6356E+03   -2.8687E+04    0.0000E+00  setid=       0
 node=  6268 local x,y,z forces =    1.8696E+03   -2.3656E+04    0.0000E+00  setid=       0
 node=  6273 local x,y,z forces =   -2.6331E+03   -2.1859E+04    0.0000E+00  setid=       0
 node=  6278 local x,y,z forces =   -4.7220E+03   -1.8821E+04    0.0000E+00  setid=       0
 node=  6283 local x,y,z forces =   -5.9938E+03   -1.6303E+04    0.0000E+00  setid=       0
 node=  6288 local x,y,z forces =   -6.6034E+03   -1.3408E+04    0.0000E+00  setid=       0
 node=  6293 local x,y,z forces =   -6.9865E+03   -1.0741E+04    0.0000E+00  setid=       0
 node=  6298 local x,y,z forces =   -7.1660E+03   -7.9965E+03    0.0000E+00  setid=       0
 node=  6303 local x,y,z forces =   -7.2813E+03   -5.3324E+03    0.0000E+00  setid=       0
 node=  6308 local x,y,z forces =   -7.3245E+03   -2.6564E+03    0.0000E+00  setid=       0
 node=  6313 local x,y,z forces =   -7.3459E+03   -2.4229E-09    0.0000E+00  setid=       0
 node=  6318 local x,y,z forces =   -7.3245E+03    2.6564E+03    0.0000E+00  setid=       0
 node=  6323 local x,y,z forces =   -7.2813E+03    5.3324E+03    0.0000E+00  setid=       0
 node=  6328 local x,y,z forces =   -7.1660E+03    7.9965E+03    0.0000E+00  setid=       0
 node=  6333 local x,y,z forces =   -6.9865E+03    1.0741E+04    0.0000E+00  setid=       0
 node=  6338 local x,y,z forces =   -6.6034E+03    1.3408E+04    0.0000E+00  setid=       0
 node=  6343 local x,y,z forces =   -5.9938E+03    1.6303E+04    0.0000E+00  setid=       0
 node=  6348 local x,y,z forces =   -4.7220E+03    1.8821E+04    0.0000E+00  setid=       0
 node=  6353 local x,y,z forces =   -2.6331E+03    2.1859E+04    0.0000E+00  setid=       0
 node=  6358 local x,y,z forces =    1.8696E+03    2.3656E+04    0.0000E+00  setid=       0
 node=  6363 local x,y,z forces =    9.6356E+03    2.8687E+04    0.0000E+00  setid=       0
 node=  6368 local x,y,z forces =    2.2381E+04    3.7829E+04    0.0000E+00  setid=       0
 node=  6373 local x,y,z forces =    1.8251E+04    4.0715E+04    0.0000E+00  setid=       0
             force resultants   =   -5.1189E+02   -8.2655E-09   -5.9591E+06
 output at time =   2.50000E-03
 node=     3 local x,y,z forces =    2.1143E+04   -4.0712E+04   -1.4016E+05  setid=       0
 node=     8 local x,y,z forces =    2.5938E+04   -3.7814E+04   -2.6622E+05  setid=       0
 node=    13 local x,y,z forces =    1.1182E+04   -2.8688E+04   -2.5706E+05  setid=       0
 node=    18 local x,y,z forces =    2.1903E+03   -2.3665E+04   -2.5195E+05  setid=       0
 node=    23 local x,y,z forces =   -3.0232E+03   -2.1872E+04   -2.4803E+05  setid=       0
 node=    28 local x,y,z forces =   -5.4423E+03   -1.8836E+04   -2.4557E+05  setid=       0
 node=    33 local x,y,z forces =   -6.9154E+03   -1.6319E+04   -2.4380E+05  setid=       0
 node=    38 local x,y,z forces =   -7.6217E+03   -1.3424E+04   -2.4263E+05  setid=       0
 node=    43 local x,y,z forces =   -8.0657E+03   -1.0755E+04   -2.4178E+05  setid=       0
 node=    48 local x,y,z forces =   -8.2739E+03   -8.0083E+03   -2.4121E+05  setid=       0
 node=    53 local x,y,z forces =   -8.4077E+03   -5.3408E+03   -2.4082E+05  setid=       0
 node=    58 local x,y,z forces =   -8.4579E+03   -2.6607E+03   -2.4061E+05  setid=       0
 node=    63 local x,y,z forces =   -8.4827E+03    3.4561E-10   -2.4054E+05  setid=       0
 node=    68 local x,y,z forces =   -8.4579E+03    2.6607E+03   -2.4061E+05  setid=       0
 node=    73 local x,y,z forces =   -8.4077E+03    5.3408E+03   -2.4082E+05  setid=       0
 node=    78 local x,y,z forces =   -8.2739E+03    8.0083E+03   -2.4121E+05  setid=       0
 node=    83 local x,y,z forces =   -8.0657E+03    1.0755E+04   -2.4178E+05  setid=       0
 node=    88 local x,y,z forces =   -7.6217E+03    1.3424E+04   -2.4263E+05  setid=       0
 node=    93 local x,y,z forces =   -6.9154E+03    1.6319E+04   -2.4380E+05  setid=       0
 node=    98 local x,y,z forces =   -5.4423E+03    1.8836E+04   -2.4557E+05  setid=       0
 node=   103 local x,y,z forces =   -3.0232E+03    2.1872E+04   -2.4803E+05  setid=       0
 node=   108 local x,y,z forces =    2.1903E+03    2.3665E+04   -2.5195E+05  setid=       0
 node=   113 local x,y,z forces =    1.1182E+04    2.8688E+04   -2.5706E+05  setid=       0
 node=   118 local x,y,z forces =    2.5938E+04    3.7814E+04   -2.6622E+05  setid=       0
 node=   123 local x,y,z forces =    2.1143E+04    4.0712E+04   -1.4016E+05  setid=       0
 node=  6253 local x,y,z forces =    2.1140E+04   -4.0707E+04    0.0000E+00  setid=       0
 node=  6258 local x,y,z forces =    2.5932E+04   -3.7814E+04    0.0000E+00  setid=       0
 node=  6263 local x,y,z forces =    1.1176E+04   -2.8688E+04    0.0000E+00  setid=       0
 node=  6268 local x,y,z forces =    2.1843E+03   -2.3665E+04    0.0000E+00  setid=       0
 node=  6273 local x,y,z forces =   -3.0292E+03   -2.1872E+04    0.0000E+00  setid=       0
 node=  6278 local x,y,z forces =   -5.4482E+03   -1.8836E+04    0.0000E+00  setid=       0
 node=  6283 local x,y,z forces =   -6.9212E+03   -1.6319E+04    0.0000E+00  setid=       0
 node=  6288 local x,y,z forces =   -7.6274E+03   -1.3424E+04    0.0000E+00  setid=       0
 node=  6293 local x,y,z forces =   -8.0714E+03   -1.0755E+04    0.0000E+00  setid=       0
 node=  6298 local x,y,z forces =   -8.2796E+03   -8.0084E+03    0.0000E+00  setid=       0
 node=  6303 local x,y,z forces =   -8.4134E+03   -5.3408E+03    0.0000E+00  setid=       0
 node=  6308 local x,y,z forces =   -8.4636E+03   -2.6608E+03    0.0000E+00  setid=       0
 node=  6313 local x,y,z forces =   -8.4884E+03   -1.4807E-09    0.0000E+00  setid=       0
 node=  6318 local x,y,z forces =   -8.4636E+03    2.6608E+03    0.0000E+00  setid=       0
 node=  6323 local x,y,z forces =   -8.4134E+03    5.3408E+03    0.0000E+00  setid=       0
 node=  6328 local x,y,z forces =   -8.2796E+03    8.0084E+03    0.0000E+00  setid=       0
 node=  6333 local x,y,z forces =   -8.0714E+03    1.0755E+04    0.0000E+00  setid=       0
 node=  6338 local x,y,z forces =   -7.6274E+03    1.3424E+04    0.0000E+00  setid=       0
 node=  6343 local x,y,z forces =   -6.9212E+03    1.6319E+04    0.0000E+00  setid=       0
 node=  6348 local x,y,z forces =   -5.4482E+03    1.8836E+04    0.0000E+00  setid=       0
 node=  6353 local x,y,z forces =   -3.0292E+03    2.1872E+04    0.0000E+00  setid=       0
 node=  6358 local x,y,z forces =    2.1843E+03    2.3665E+04    0.0000E+00  setid=       0
 node=  6363 local x,y,z forces =    1.1176E+04    2.8688E+04    0.0000E+00  setid=       0
 node=  6368 local x,y,z forces =    2.5932E+04    3.7814E+04    0.0000E+00  setid=       0
 node=  6373 local x,y,z forces =    2.1140E+04    4.0707E+04    0.0000E+00  setid=       0
             force resultants   =   -1.2232E+02   -5.9881E-09   -5.9602E+06
 output at time =   3.00000E-03
 node=     3 local x,y,z forces =    2.3662E+04   -4.0713E+04   -1.4066E+05  setid=       0
 node=     8 local x,y,z forces =    2.9038E+04   -3.7794E+04   -2.6683E+05  setid=       0
 node=    13 local x,y,z forces =    1.2530E+04   -2.8686E+04   -2.5734E+05  setid=       0
 node=    18 local x,y,z forces =    2.4704E+03   -2.3672E+04   -2.5203E+05  setid=       0
 node=    23 local x,y,z forces =   -3.3627E+03   -2.1882E+04   -2.4800E+05  setid=       0
 node=    28 local x,y,z forces =   -6.0699E+03   -1.8849E+04   -2.4549E+05  setid=       0
 node=    33 local x,y,z forces =   -7.7187E+03   -1.6334E+04   -2.4370E+05  setid=       0
 node=    38 local x,y,z forces =   -8.5097E+03   -1.3439E+04   -2.4252E+05  setid=       0
 node=    43 local x,y,z forces =   -9.0072E+03   -1.0768E+04   -2.4166E+05  setid=       0
 node=    48 local x,y,z forces =   -9.2408E+03   -8.0194E+03   -2.4110E+05  setid=       0
 node=    53 local x,y,z forces =   -9.3909E+03   -5.3486E+03   -2.4071E+05  setid=       0
 node=    58 local x,y,z forces =   -9.4473E+03   -2.6648E+03   -2.4050E+05  setid=       0
 node=    63 local x,y,z forces =   -9.4752E+03   -2.4374E-10   -2.4043E+05  setid=       0
 node=    68 local x,y,z forces =   -9.4473E+03    2.6648E+03   -2.4050E+05  setid=       0
 node=    73 local x,y,z forces =   -9.3909E+03    5.3486E+03   -2.4071E+05  setid=       0
 node=    78 local x,y,z forces =   -9.2408E+03    8.0194E+03   -2.4110E+05  setid=       0
 node=    83 local x,y,z forces =   -9.0072E+03    1.0768E+04   -2.4166E+05  setid=       0
 node=    88 local x,y,z forces =   -8.5097E+03    1.3439E+04   -2.4252E+05  setid=       0
 node=    93 local x,y,z forces =   -7.7187E+03    1.6334E+04   -2.4370E+05  setid=       0
 node=    98 local x,y,z forces =   -6.0699E+03    1.8849E+04   -2.4549E+05  setid=       0
 node=   103 local x,y,z forces =   -3.3627E+03    2.1882E+04   -2.4800E+05  setid=       0
 node=   108 local x,y,z forces =    2.4704E+03    2.3672E+04   -2.5203E+05  setid=       0
 node=   113 local x,y,z forces =    1.2530E+04    2.8686E+04   -2.5734E+05  setid=       0
 node=   118 local x,y,z forces =    2.9038E+04    3.7794E+04   -2.6683E+05  setid=       0
 node=   123 local x,y,z forces =    2.3662E+04    4.0713E+04   -1.4066E+05  setid=       0
 node=  6253 local x,y,z forces =    2.3674E+04   -4.0723E+04    0.0000E+00  setid=       0
 node=  6258 local x,y,z forces =    2.9064E+04   -3.7795E+04    0.0000E+00  setid=       0
 node=  6263 local x,y,z forces =    1.2557E+04   -2.8687E+04    0.0000E+00  setid=       0
 node=  6268 local x,y,z forces =    2.4980E+03   -2.3672E+04    0.0000E+00  setid=       0
 node=  6273 local x,y,z forces =   -3.3348E+03   -2.1882E+04    0.0000E+00  setid=       0
 node=  6278 local x,y,z forces =   -6.0419E+03   -1.8849E+04    0.0000E+00  setid=       0
 node=  6283 local x,y,z forces =   -7.6907E+03   -1.6334E+04    0.0000E+00  setid=       0
 node=  6288 local x,y,z forces =   -8.4816E+03   -1.3439E+04    0.0000E+00  setid=       0
 node=  6293 local x,y,z forces =   -8.9792E+03   -1.0768E+04    0.0000E+00  setid=       0
 node=  6298 local x,y,z forces =   -9.2128E+03   -8.0195E+03    0.0000E+00  setid=       0
 node=  6303 local x,y,z forces =   -9.3630E+03   -5.3487E+03    0.0000E+00  setid=       0
 node=  6308 local x,y,z forces =   -9.4194E+03   -2.6648E+03    0.0000E+00  setid=       0
 node=  6313 local x,y,z forces =   -9.4472E+03    2.2737E-09    0.0000E+00  setid=       0
 node=  6318 local x,y,z forces =   -9.4194E+03    2.6648E+03    0.0000E+00  setid=       0
 node=  6323 local x,y,z forces =   -9.3630E+03    5.3487E+03    0.0000E+00  setid=       0
 node=  6328 local x,y,z forces =   -9.2128E+03    8.0195E+03    0.0000E+00  setid=       0
 node=  6333 local x,y,z forces =   -8.9792E+03    1.0768E+04    0.0000E+00  setid=       0
 node=  6338 local x,y,z forces =   -8.4816E+03    1.3439E+04    0.0000E+00  setid=       0
 node=  6343 local x,y,z forces =   -7.6907E+03    1.6334E+04    0.0000E+00  setid=       0
 node=  6348 local x,y,z forces =   -6.0419E+03    1.8849E+04    0.0000E+00  setid=       0
 node=  6353 local x,y,z forces =   -3.3348E+03    2.1882E+04    0.0000E+00  setid=       0
 node=  6358 local x,y,z forces =    2.4980E+03    2.3672E+04    0.0000E+00  setid=       0
 node=  6363 local x,y,z forces =    1.2557E+04    2.8687E+04    0.0000E+00  setid=       0
 node=  6368 local x,y,z forces =    2.9064E+04    3.7795E+04    0.0000E+00  setid=       0
 node=  6373 local x,y,z forces =    2.3674E+04    4.0723E+04    0.0000E+00  setid=       0
             force resultants   =    1.5218E+03    9.8225E-10   -5.9615E+06
 output at time =   3.50000E-03
 node=     3 local x,y,z forces =    2.5924E+04   -4.0676E+04   -1.4117E+05  setid=       0
 node=     8 local x,y,z forces =    3.1811E+04   -3.7787E+04   -2.6748E+05  setid=       0
 node=    13 local x,y,z forces =    1.3722E+04   -2.8693E+04   -2.5765E+05  setid=       0
 node=    18 local x,y,z forces =    2.6996E+03   -2.3686E+04   -2.5214E+05  setid=       0
 node=    23 local x,y,z forces =   -3.6924E+03   -2.1899E+04   -2.4799E+05  setid=       0
 node=    28 local x,y,z forces =   -6.6594E+03   -1.8868E+04   -2.4544E+05  setid=       0
 node=    33 local x,y,z forces =   -8.4667E+03   -1.6354E+04   -2.4362E+05  setid=       0
 node=    38 local x,y,z forces =   -9.3340E+03   -1.3458E+04   -2.4243E+05  setid=       0
 node=    43 local x,y,z forces =   -9.8797E+03   -1.0785E+04   -2.4157E+05  setid=       0
 node=    48 local x,y,z forces =   -1.0136E+04   -8.0330E+03   -2.4100E+05  setid=       0
 node=    53 local x,y,z forces =   -1.0301E+04   -5.3581E+03   -2.4062E+05  setid=       0
 node=    58 local x,y,z forces =   -1.0363E+04   -2.6697E+03   -2.4041E+05  setid=       0
 node=    63 local x,y,z forces =   -1.0394E+04    4.5475E-10   -2.4034E+05  setid=       0
 node=    68 local x,y,z forces =   -1.0363E+04    2.6697E+03   -2.4041E+05  setid=       0
 node=    73 local x,y,z forces =   -1.0301E+04    5.3581E+03   -2.4062E+05  setid=       0
 node=    78 local x,y,z forces =   -1.0136E+04    8.0330E+03   -2.4100E+05  setid=       0
 node=    83 local x,y,z forces =   -9.8797E+03    1.0785E+04   -2.4157E+05  setid=       0
 node=    88 local x,y,z forces =   -9.3340E+03    1.3458E+04   -2.4243E+05  setid=       0
 node=    93 local x,y,z forces =   -8.4667E+03    1.6354E+04   -2.4362E+05  setid=       0
 node=    98 local x,y,z forces =   -6.6594E+03    1.8868E+04   -2.4544E+05  setid=       0
 node=   103 local x,y,z forces =   -3.6924E+03    2.1899E+04   -2.4799E+05  setid=       0
 node=   108 local x,y,z forces =    2.6996E+03    2.3686E+04   -2.5214E+05  setid=       0
 node=   113 local x,y,z forces =    1.3722E+04    2.8693E+04   -2.5765E+05  setid=       0
 node=   118 local x,y,z forces =    3.1811E+04    3.7787E+04   -2.6748E+05  setid=       0
 node=   123 local x,y,z forces =    2.5924E+04    4.0676E+04   -1.4117E+05  setid=       0
 node=  6253 local x,y,z forces =    2.5930E+04   -4.0681E+04    0.0000E+00  setid=       0
 node=  6258 local x,y,z forces =    3.1825E+04   -3.7787E+04    0.0000E+00  setid=       0
 node=  6263 local x,y,z forces =    1.3737E+04   -2.8694E+04    0.0000E+00  setid=       0
 node=  6268 local x,y,z forces =    2.7144E+03   -2.3686E+04    0.0000E+00  setid=       0
 node=  6273 local x,y,z forces =   -3.6774E+03   -2.1899E+04    0.0000E+00  setid=       0
 node=  6278 local x,y,z forces =   -6.6443E+03   -1.8869E+04    0.0000E+00  setid=       0
 node=  6283 local x,y,z forces =   -8.4516E+03   -1.6354E+04    0.0000E+00  setid=       0
 node=  6288 local x,y,z forces =   -9.3189E+03   -1.3458E+04    0.0000E+00  setid=       0
 node=  6293 local x,y,z forces =   -9.8646E+03   -1.0785E+04    0.0000E+00  setid=       0
 node=  6298 local x,y,z forces =   -1.0121E+04   -8.0330E+03    0.0000E+00  setid=       0
 node=  6303 local x,y,z forces =   -1.0286E+04   -5.3582E+03    0.0000E+00  setid=       0
 node=  6308 local x,y,z forces =   -1.0348E+04   -2.6697E+03    0.0000E+00  setid=       0
 node=  6313 local x,y,z forces =   -1.0379E+04   -1.6917E-09    0.0000E+00  setid=       0
 node=  6318 local x,y,z forces =   -1.0348E+04    2.6697E+03    0.0000E+00  setid=       0
 node=  6323 local x,y,z forces =   -1.0286E+04    5.3582E+03    0.0000E+00  setid=       0
 node=  6328 local x,y,z forces =   -1.0121E+04    8.0330E+03    0.0000E+00  setid=       0
 node=  6333 local x,y,z forces =   -9.8646E+03    1.0785E+04    0.0000E+00  setid=       0
 node=  6338 local x,y,z forces =   -9.3189E+03    1.3458E+04    0.0000E+00  setid=       0
 node=  6343 local x,y,z forces =   -8.4516E+03    1.6354E+04    0.0000E+00  setid=       0
 node=  6348 local x,y,z forces =   -6.6443E+03    1.8869E+04    0.0000E+00  setid=       0
 node=  6353 local x,y,z forces =   -3.6774E+03    2.1899E+04    0.0000E+00  setid=       0
 node=  6358 local x,y,z forces =    2.7144E+03    2.3686E+04    0.0000E+00  setid=       0
 node=  6363 local x,y,z forces =    1.3737E+04    2.8694E+04    0.0000E+00  setid=       0
 node=  6368 local x,y,z forces =    3.1825E+04    3.7787E+04    0.0000E+00  setid=       0
 node=  6373 local x,y,z forces =    2.5930E+04    4.0681E+04    0.0000E+00  setid=       0
             force resultants   =    8.6600E+02   -2.4811E-09   -5.9634E+06
 output at time =   4.00000E-03
 node=     3 local x,y,z forces =    2.7986E+04   -4.0416E+04   -1.4142E+05  setid=       0
 node=     8 local x,y,z forces =    3.4329E+04   -3.7734E+04   -2.6761E+05  setid=       0
 node=    13 local x,y,z forces =    1.4794E+04   -2.8667E+04   -2.5745E+05  setid=       0
 node=    18 local x,y,z forces =    2.8892E+03   -2.3673E+04   -2.5175E+05  setid=       0
 node=    23 local x,y,z forces =   -4.0144E+03   -2.1891E+04   -2.4750E+05  setid=       0
 node=    28 local x,y,z forces =   -7.2193E+03   -1.8866E+04   -2.4490E+05  setid=       0
 node=    33 local x,y,z forces =   -9.1718E+03   -1.6355E+04   -2.4305E+05  setid=       0
 node=    38 local x,y,z forces =   -1.0109E+04   -1.3461E+04   -2.4186E+05  setid=       0
 node=    43 local x,y,z forces =   -1.0699E+04   -1.0790E+04   -2.4100E+05  setid=       0
 node=    48 local x,y,z forces =   -1.0976E+04   -8.0374E+03   -2.4043E+05  setid=       0
 node=    53 local x,y,z forces =   -1.1155E+04   -5.3616E+03   -2.4005E+05  setid=       0
 node=    58 local x,y,z forces =   -1.1222E+04   -2.6716E+03   -2.3985E+05  setid=       0
 node=    63 local x,y,z forces =   -1.1255E+04    4.1473E-10   -2.3977E+05  setid=       0
 node=    68 local x,y,z forces =   -1.1222E+04    2.6716E+03   -2.3985E+05  setid=       0
 node=    73 local x,y,z forces =   -1.1155E+04    5.3616E+03   -2.4005E+05  setid=       0
 node=    78 local x,y,z forces =   -1.0976E+04    8.0374E+03   -2.4043E+05  setid=       0
 node=    83 local x,y,z forces =   -1.0699E+04    1.0790E+04   -2.4100E+05  setid=       0
 node=    88 local x,y,z forces =   -1.0109E+04    1.3461E+04   -2.4186E+05  setid=       0
 node=    93 local x,y,z forces =   -9.1718E+03    1.6355E+04   -2.4305E+05  setid=       0
 node=    98 local x,y,z forces =   -7.2193E+03    1.8866E+04   -2.4490E+05  setid=       0
 node=   103 local x,y,z forces =   -4.0144E+03    2.1891E+04   -2.4750E+05  setid=       0
 node=   108 local x,y,z forces =    2.8892E+03    2.3673E+04   -2.5175E+05  setid=       0
 node=   113 local x,y,z forces =    1.4794E+04    2.8667E+04   -2.5745E+05  setid=       0
 node=   118 local x,y,z forces =    3.4329E+04    3.7734E+04   -2.6761E+05  setid=       0
 node=   123 local x,y,z forces =    2.7986E+04    4.0416E+04   -1.4142E+05  setid=       0
 node=  6253 local x,y,z forces =    2.7994E+04   -4.0414E+04    0.0000E+00  setid=       0
 node=  6258 local x,y,z forces =    3.4350E+04   -3.7734E+04    0.0000E+00  setid=       0
 node=  6263 local x,y,z forces =    1.4818E+04   -2.8667E+04    0.0000E+00  setid=       0
 node=  6268 local x,y,z forces =    2.9143E+03   -2.3673E+04    0.0000E+00  setid=       0
 node=  6273 local x,y,z forces =   -3.9884E+03   -2.1891E+04    0.0000E+00  setid=       0
 node=  6278 local x,y,z forces =   -7.1931E+03   -1.8866E+04    0.0000E+00  setid=       0
 node=  6283 local x,y,z forces =   -9.1455E+03   -1.6355E+04    0.0000E+00  setid=       0
 node=  6288 local x,y,z forces =   -1.0083E+04   -1.3461E+04    0.0000E+00  setid=       0
 node=  6293 local x,y,z forces =   -1.0673E+04   -1.0790E+04    0.0000E+00  setid=       0
 node=  6298 local x,y,z forces =   -1.0950E+04   -8.0374E+03    0.0000E+00  setid=       0
 node=  6303 local x,y,z forces =   -1.1129E+04   -5.3615E+03    0.0000E+00  setid=       0
 node=  6308 local x,y,z forces =   -1.1196E+04   -2.6716E+03    0.0000E+00  setid=       0
 node=  6313 local x,y,z forces =   -1.1229E+04   -2.2264E-09    0.0000E+00  setid=       0
 node=  6318 local x,y,z forces =   -1.1196E+04    2.6716E+03    0.0000E+00  setid=       0
 node=  6323 local x,y,z forces =   -1.1129E+04    5.3615E+03    0.0000E+00  setid=       0
 node=  6328 local x,y,z forces =   -1.0950E+04    8.0374E+03    0.0000E+00  setid=       0
 node=  6333 local x,y,z forces =   -1.0673E+04    1.0790E+04    0.0000E+00  setid=       0
 node=  6338 local x,y,z forces =   -1.0083E+04    1.3461E+04    0.0000E+00  setid=       0
 node=  6343 local x,y,z forces =   -9.1455E+03    1.6355E+04    0.0000E+00  setid=       0
 node=  6348 local x,y,z forces =   -7.1931E+03    1.8866E+04    0.0000E+00  setid=       0
 node=  6353 local x,y,z forces =   -3.9884E+03    2.1891E+04    0.0000E+00  setid=       0
 node=  6358 local x,y,z forces =    2.9143E+03    2.3673E+04    0.0000E+00  setid=       0
 node=  6363 local x,y,z forces =    1.4818E+04    2.8667E+04    0.0000E+00  setid=       0
 node=  6368 local x,y,z forces =    3.4350E+04    3.7734E+04    0.0000E+00  setid=       0
 node=  6373 local x,y,z forces =    2.7994E+04    4.0414E+04    0.0000E+00  setid=       0
             force resultants   =   -1.8517E+02   -1.1918E-08   -5.9535E+06
 output at time =   4.50000E-03
 node=     3 local x,y,z forces =    2.9909E+04   -4.0459E+04   -1.4201E+05  setid=       0
 node=     8 local x,y,z forces =    3.6694E+04   -3.7739E+04   -2.6842E+05  setid=       0
 node=    13 local x,y,z forces =    1.5819E+04   -2.8683E+04   -2.5792E+05  setid=       0
 node=    18 local x,y,z forces =    3.0971E+03   -2.3694E+04   -2.5202E+05  setid=       0
 node=    23 local x,y,z forces =   -4.2808E+03   -2.1915E+04   -2.4765E+05  setid=       0
 node=    28 local x,y,z forces =   -7.7063E+03   -1.8891E+04   -2.4500E+05  setid=       0
 node=    33 local x,y,z forces =   -9.7937E+03   -1.6380E+04   -2.4313E+05  setid=       0
 node=    38 local x,y,z forces =   -1.0796E+04   -1.3484E+04   -2.4192E+05  setid=       0
 node=    43 local x,y,z forces =   -1.1427E+04   -1.0810E+04   -2.4105E+05  setid=       0
 node=    48 local x,y,z forces =   -1.1724E+04   -8.0534E+03   -2.4049E+05  setid=       0
 node=    53 local x,y,z forces =   -1.1916E+04   -5.3727E+03   -2.4011E+05  setid=       0
 node=    58 local x,y,z forces =   -1.1988E+04   -2.6773E+03   -2.3990E+05  setid=       0
 node=    63 local x,y,z forces =   -1.2023E+04    7.9308E-10   -2.3983E+05  setid=       0
 node=    68 local x,y,z forces =   -1.1988E+04    2.6773E+03   -2.3990E+05  setid=       0
 node=    73 local x,y,z forces =   -1.1916E+04    5.3727E+03   -2.4011E+05  setid=       0
 node=    78 local x,y,z forces =   -1.1724E+04    8.0534E+03   -2.4049E+05  setid=       0
 node=    83 local x,y,z forces =   -1.1427E+04    1.0810E+04   -2.4105E+05  setid=       0
 node=    88 local x,y,z forces =   -1.0796E+04    1.3484E+04   -2.4192E+05  setid=       0
 node=    93 local x,y,z forces =   -9.7937E+03    1.6380E+04   -2.4313E+05  setid=       0
 node=    98 local x,y,z forces =   -7.7063E+03    1.8891E+04   -2.4500E+05  setid=       0
 node=   103 local x,y,z forces =   -4.2808E+03    2.1915E+04   -2.4765E+05  setid=       0
 node=   108 local x,y,z forces =    3.0971E+03    2.3694E+04   -2.5202E+05  setid=       0
 node=   113 local x,y,z forces =    1.5819E+04    2.8683E+04   -2.5792E+05  setid=       0
 node=   118 local x,y,z forces =    3.6694E+04    3.7739E+04   -2.6842E+05  setid=       0
 node=   123 local x,y,z forces =    2.9909E+04    4.0459E+04   -1.4201E+05  setid=       0
 node=  6253 local x,y,z forces =    2.9916E+04   -4.0458E+04    0.0000E+00  setid=       0
 node=  6258 local x,y,z forces =    3.6709E+04   -3.7739E+04    0.0000E+00  setid=       0
 node=  6263 local x,y,z forces =    1.5836E+04   -2.8683E+04    0.0000E+00  setid=       0
 node=  6268 local x,y,z forces =    3.1152E+03   -2.3694E+04    0.0000E+00  setid=       0
 node=  6273 local x,y,z forces =   -4.2621E+03   -2.1915E+04    0.0000E+00  setid=       0
 node=  6278 local x,y,z forces =   -7.6875E+03   -1.8891E+04    0.0000E+00  setid=       0
 node=  6283 local x,y,z forces =   -9.7747E+03   -1.6379E+04    0.0000E+00  setid=       0
 node=  6288 local x,y,z forces =   -1.0777E+04   -1.3484E+04    0.0000E+00  setid=       0
 node=  6293 local x,y,z forces =   -1.1408E+04   -1.0810E+04    0.0000E+00  setid=       0
 node=  6298 local x,y,z forces =   -1.1706E+04   -8.0534E+03    0.0000E+00  setid=       0
 node=  6303 local x,y,z forces =   -1.1897E+04   -5.3727E+03    0.0000E+00  setid=       0
 node=  6308 local x,y,z forces =   -1.1969E+04   -2.6773E+03    0.0000E+00  setid=       0
 node=  6313 local x,y,z forces =   -1.2004E+04   -2.4156E-09    0.0000E+00  setid=       0
 node=  6318 local x,y,z forces =   -1.1969E+04    2.6773E+03    0.0000E+00  setid=       0
 node=  6323 local x,y,z forces =   -1.1897E+04    5.3727E+03    0.0000E+00  setid=       0
 node=  6328 local x,y,z forces =   -1.1706E+04    8.0534E+03    0.0000E+00  setid=       0
 node=  6333 local x,y,z forces =   -1.1408E+04    1.0810E+04    0.0000E+00  setid=       0
 node=  6338 local x,y,z forces =   -1.0777E+04    1.3484E+04    0.0000E+00  setid=       0
 node=  6343 local x,y,z forces =   -9.7747E+03    1.6379E+04    0.0000E+00  setid=       0
 node=  6348 local x,y,z forces =   -7.6875E+03    1.8891E+04    0.0000E+00  setid=       0
 node=  6353 local x,y,z forces =   -4.2621E+03    2.1915E+04    0.0000E+00  setid=       0
 node=  6358 local x,y,z forces =    3.1152E+03    2.3694E+04    0.0000E+00  setid=       0
 node=  6363 local x,y,z forces =    1.5836E+04    2.8683E+04    0.0000E+00  setid=       0
 node=  6368 local x,y,z forces =    3.6709E+04    3.7739E+04    0.0000E+00  setid=       0
 node=  6373 local x,y,z forces =    2.9916E+04    4.0458E+04    0.0000E+00  setid=       0
             force resultants   =   -6.3779E+01    1.0768E-09   -5.9591E+06
 output at time =   5.00000E-03
 node=     3 local x,y,z forces =    3.1709E+04   -4.0476E+04   -1.4257E+05  setid=       0
 node=     8 local x,y,z forces =    3.8905E+04   -3.7737E+04   -2.6915E+05  setid=       0
 node=    13 local x,y,z forces =    1.6777E+04   -2.8695E+04   -2.5832E+05  setid=       0
 node=    18 local x,y,z forces =    3.2899E+03   -2.3712E+04   -2.5221E+05  setid=       0
 node=    23 local x,y,z forces =   -4.5320E+03   -2.1936E+04   -2.4773E+05  setid=       0
 node=    28 local x,y,z forces =   -8.1643E+03   -1.8913E+04   -2.4503E+05  setid=       0
 node=    33 local x,y,z forces =   -1.0378E+04   -1.6402E+04   -2.4313E+05  setid=       0
 node=    38 local x,y,z forces =   -1.1442E+04   -1.3505E+04   -2.4192E+05  setid=       0
 node=    43 local x,y,z forces =   -1.2112E+04   -1.0828E+04   -2.4105E+05  setid=       0
 node=    48 local x,y,z forces =   -1.2427E+04   -8.0681E+03   -2.4048E+05  setid=       0
 node=    53 local x,y,z forces =   -1.2630E+04   -5.3830E+03   -2.4010E+05  setid=       0
 node=    58 local x,y,z forces =   -1.2707E+04   -2.6826E+03   -2.3990E+05  setid=       0
 node=    63 local x,y,z forces =   -1.2745E+04    1.7826E-10   -2.3983E+05  setid=       0
 node=    68 local x,y,z forces =   -1.2707E+04    2.6826E+03   -2.3990E+05  setid=       0
 node=    73 local x,y,z forces =   -1.2630E+04    5.3830E+03   -2.4010E+05  setid=       0
 node=    78 local x,y,z forces =   -1.2427E+04    8.0681E+03   -2.4048E+05  setid=       0
 node=    83 local x,y,z forces =   -1.2112E+04    1.0828E+04   -2.4105E+05  setid=       0
 node=    88 local x,y,z forces =   -1.1442E+04    1.3505E+04   -2.4192E+05  setid=       0
 node=    93 local x,y,z forces =   -1.0378E+04    1.6402E+04   -2.4313E+05  setid=       0
 node=    98 local x,y,z forces =   -8.1643E+03    1.8913E+04   -2.4503E+05  setid=       0
 node=   103 local x,y,z forces =   -4.5320E+03    2.1936E+04   -2.4773E+05  setid=       0
 node=   108 local x,y,z forces =    3.2899E+03    2.3712E+04   -2.5221E+05  setid=       0
 node=   113 local x,y,z forces =    1.6777E+04    2.8695E+04   -2.5832E+05  setid=       0
 node=   118 local x,y,z forces =    3.8905E+04    3.7737E+04   -2.6915E+05  setid=       0
 node=   123 local x,y,z forces =    3.1709E+04    4.0476E+04   -1.4257E+05  setid=       0
 node=  6253 local x,y,z forces =    3.1714E+04   -4.0475E+04    0.0000E+00  setid=       0
 node=  6258 local x,y,z forces =    3.8917E+04   -3.7737E+04    0.0000E+00  setid=       0
 node=  6263 local x,y,z forces =    1.6789E+04   -2.8695E+04    0.0000E+00  setid=       0
 node=  6268 local x,y,z forces =    3.3035E+03   -2.3712E+04    0.0000E+00  setid=       0
 node=  6273 local x,y,z forces =   -4.5180E+03   -2.1936E+04    0.0000E+00  setid=       0
 node=  6278 local x,y,z forces =   -8.1501E+03   -1.8913E+04    0.0000E+00  setid=       0
 node=  6283 local x,y,z forces =   -1.0364E+04   -1.6402E+04    0.0000E+00  setid=       0
 node=  6288 local x,y,z forces =   -1.1427E+04   -1.3505E+04    0.0000E+00  setid=       0
 node=  6293 local x,y,z forces =   -1.2097E+04   -1.0828E+04    0.0000E+00  setid=       0
 node=  6298 local x,y,z forces =   -1.2413E+04   -8.0681E+03    0.0000E+00  setid=       0
 node=  6303 local x,y,z forces =   -1.2616E+04   -5.3830E+03    0.0000E+00  setid=       0
 node=  6308 local x,y,z forces =   -1.2693E+04   -2.6826E+03    0.0000E+00  setid=       0
 node=  6313 local x,y,z forces =   -1.2731E+04   -2.6412E-09    0.0000E+00  setid=       0
 node=  6318 local x,y,z forces =   -1.2693E+04    2.6826E+03    0.0000E+00  setid=       0
 node=  6323 local x,y,z forces =   -1.2616E+04    5.3830E+03    0.0000E+00  setid=       0
 node=  6328 local x,y,z forces =   -1.2413E+04    8.0681E+03    0.0000E+00  setid=       0
 node=  6333 local x,y,z forces =   -1.2097E+04    1.0828E+04    0.0000E+00  setid=       0
 node=  6338 local x,y,z forces =   -1.1427E+04    1.3505E+04    0.0000E+00  setid=       0
 node=  6343 local x,y,z forces =   -1.0364E+04    1.6402E+04    0.0000E+00  setid=       0
 node=  6348 local x,y,z forces =   -8.1501E+03    1.8913E+04    0.0000E+00  setid=       0
 node=  6353 local x,y,z forces =   -4.5180E+03    2.1936E+04    0.0000E+00  setid=       0
 node=  6358 local x,y,z forces =    3.3035E+03    2.3712E+04    0.0000E+00  setid=       0
 node=  6363 local x,y,z forces =    1.6789E+04    2.8695E+04    0.0000E+00  setid=       0
 node=  6368 local x,y,z forces =    3.8917E+04    3.7737E+04    0.0000E+00  setid=       0
 node=  6373 local x,y,z forces =    3.1714E+04    4.0475E+04    0.0000E+00  setid=       0
             force resultants   =   -9.4343E+00   -7.2760E-10   -5.9631E+06
 output at time =   5.50000E-03
 node=     3 local x,y,z forces =    3.3405E+04   -4.0478E+04   -1.4311E+05  setid=       0
 node=     8 local x,y,z forces =    4.0989E+04   -3.7732E+04   -2.6985E+05  setid=       0
 node=    13 local x,y,z forces =    1.7679E+04   -2.8704E+04   -2.5868E+05  setid=       0
 node=    18 local x,y,z forces =    3.4709E+03   -2.3727E+04   -2.5238E+05  setid=       0
 node=    23 local x,y,z forces =   -4.7696E+03   -2.1954E+04   -2.4778E+05  setid=       0
 node=    28 local x,y,z forces =   -8.5968E+03   -1.8934E+04   -2.4504E+05  setid=       0
 node=    33 local x,y,z forces =   -1.0930E+04   -1.6422E+04   -2.4311E+05  setid=       0
 node=    38 local x,y,z forces =   -1.2051E+04   -1.3525E+04   -2.4189E+05  setid=       0
 node=    43 local x,y,z forces =   -1.2758E+04   -1.0845E+04   -2.4101E+05  setid=       0
 node=    48 local x,y,z forces =   -1.3091E+04   -8.0821E+03   -2.4045E+05  setid=       0
 node=    53 local x,y,z forces =   -1.3306E+04   -5.3928E+03   -2.4007E+05  setid=       0
 node=    58 local x,y,z forces =   -1.3387E+04   -2.6877E+03   -2.3987E+05  setid=       0
 node=    63 local x,y,z forces =   -1.3427E+04   -9.8225E-11   -2.3979E+05  setid=       0
 node=    68 local x,y,z forces =   -1.3387E+04    2.6877E+03   -2.3987E+05  setid=       0
 node=    73 local x,y,z forces =   -1.3306E+04    5.3928E+03   -2.4007E+05  setid=       0
 node=    78 local x,y,z forces =   -1.3091E+04    8.0821E+03   -2.4045E+05  setid=       0
 node=    83 local x,y,z forces =   -1.2758E+04    1.0845E+04   -2.4101E+05  setid=       0
 node=    88 local x,y,z forces =   -1.2051E+04    1.3525E+04   -2.4189E+05  setid=       0
 node=    93 local x,y,z forces =   -1.0930E+04    1.6422E+04   -2.4311E+05  setid=       0
 node=    98 local x,y,z forces =   -8.5968E+03    1.8934E+04   -2.4504E+05  setid=       0
 node=   103 local x,y,z forces =   -4.7696E+03    2.1954E+04   -2.4778E+05  setid=       0
 node=   108 local x,y,z forces =    3.4709E+03    2.3727E+04   -2.5238E+05  setid=       0
 node=   113 local x,y,z forces =    1.7679E+04    2.8704E+04   -2.5868E+05  setid=       0
 node=   118 local x,y,z forces =    4.0989E+04    3.7732E+04   -2.6985E+05  setid=       0
 node=   123 local x,y,z forces =    3.3405E+04    4.0478E+04   -1.4311E+05  setid=       0
 node=  6253 local x,y,z forces =    3.3409E+04   -4.0478E+04    0.0000E+00  setid=       0
 node=  6258 local x,y,z forces =    4.0998E+04   -3.7732E+04    0.0000E+00  setid=       0
 node=  6263 local x,y,z forces =    1.7688E+04   -2.8704E+04    0.0000E+00  setid=       0
 node=  6268 local x,y,z forces =    3.4814E+03   -2.3727E+04    0.0000E+00  setid=       0
 node=  6273 local x,y,z forces =   -4.7587E+03   -2.1954E+04    0.0000E+00  setid=       0
 node=  6278 local x,y,z forces =   -8.5859E+03   -1.8934E+04    0.0000E+00  setid=       0
 node=  6283 local x,y,z forces =   -1.0919E+04   -1.6422E+04    0.0000E+00  setid=       0
 node=  6288 local x,y,z forces =   -1.2040E+04   -1.3525E+04    0.0000E+00  setid=       0
 node=  6293 local x,y,z forces =   -1.2747E+04   -1.0845E+04    0.0000E+00  setid=       0
 node=  6298 local x,y,z forces =   -1.3080E+04   -8.0821E+03    0.0000E+00  setid=       0
 node=  6303 local x,y,z forces =   -1.3295E+04   -5.3928E+03    0.0000E+00  setid=       0
 node=  6308 local x,y,z forces =   -1.3376E+04   -2.6877E+03    0.0000E+00  setid=       0
 node=  6313 local x,y,z forces =   -1.3416E+04   -2.4265E-09    0.0000E+00  setid=       0
 node=  6318 local x,y,z forces =   -1.3376E+04    2.6877E+03    0.0000E+00  setid=       0
 node=  6323 local x,y,z forces =   -1.3295E+04    5.3928E+03    0.0000E+00  setid=       0
 node=  6328 local x,y,z forces =   -1.3080E+04    8.0821E+03    0.0000E+00  setid=       0
 node=  6333 local x,y,z forces =   -1.2747E+04    1.0845E+04    0.0000E+00  setid=       0
 node=  6338 local x,y,z forces =   -1.2040E+04    1.3525E+04    0.0000E+00  setid=       0
 node=  6343 local x,y,z forces =   -1.0919E+04    1.6422E+04    0.0000E+00  setid=       0
 node=  6348 local x,y,z forces =   -8.5859E+03    1.8934E+04    0.0000E+00  setid=       0
 node=  6353 local x,y,z forces =   -4.7587E+03    2.1954E+04    0.0000E+00  setid=       0
 node=  6358 local x,y,z forces =    3.4814E+03    2.3727E+04    0.0000E+00  setid=       0
 node=  6363 local x,y,z forces =    1.7688E+04    2.8704E+04    0.0000E+00  setid=       0
 node=  6368 local x,y,z forces =    4.0998E+04    3.7732E+04    0.0000E+00  setid=       0
 node=  6373 local x,y,z forces =    3.3409E+04    4.0478E+04    0.0000E+00  setid=       0
             force resultants   =    1.7766E+01   -3.7835E-09   -5.9663E+06
 output at time =   6.00000E-03
 node=     3 local x,y,z forces =    3.5012E+04   -4.0472E+04   -1.4364E+05  setid=       0
 node=     8 local x,y,z forces =    4.2964E+04   -3.7725E+04   -2.7054E+05  setid=       0
 node=    13 local x,y,z forces =    1.8533E+04   -2.8711E+04   -2.5903E+05  setid=       0
 node=    18 local x,y,z forces =    3.6423E+03   -2.3742E+04   -2.5252E+05  setid=       0
 node=    23 local x,y,z forces =   -4.9951E+03   -2.1971E+04   -2.4782E+05  setid=       0
 node=    28 local x,y,z forces =   -9.0073E+03   -1.8953E+04   -2.4502E+05  setid=       0
 node=    33 local x,y,z forces =   -1.1453E+04   -1.6442E+04   -2.4307E+05  setid=       0
 node=    38 local x,y,z forces =   -1.2630E+04   -1.3544E+04   -2.4183E+05  setid=       0
 node=    43 local x,y,z forces =   -1.3371E+04   -1.0862E+04   -2.4095E+05  setid=       0
 node=    48 local x,y,z forces =   -1.3721E+04   -8.0958E+03   -2.4039E+05  setid=       0
 node=    53 local x,y,z forces =   -1.3947E+04   -5.4024E+03   -2.4001E+05  setid=       0
 node=    58 local x,y,z forces =   -1.4032E+04   -2.6926E+03   -2.3981E+05  setid=       0
 node=    63 local x,y,z forces =   -1.4074E+04    2.2919E-10   -2.3974E+05  setid=       0
 node=    68 local x,y,z forces =   -1.4032E+04    2.6926E+03   -2.3981E+05  setid=       0
 node=    73 local x,y,z forces =   -1.3947E+04    5.4024E+03   -2.4001E+05  setid=       0
 node=    78 local x,y,z forces =   -1.3721E+04    8.0958E+03   -2.4039E+05  setid=       0
 node=    83 local x,y,z forces =   -1.3371E+04    1.0862E+04   -2.4095E+05  setid=       0
 node=    88 local x,y,z forces =   -1.2630E+04    1.3544E+04   -2.4183E+05  setid=       0
 node=    93 local x,y,z forces =   -1.1453E+04    1.6442E+04   -2.4307E+05  setid=       0
 node=    98 local x,y,z forces =   -9.0073E+03    1.8953E+04   -2.4502E+05  setid=       0
 node=   103 local x,y,z forces =   -4.9951E+03    2.1971E+04   -2.4782E+05  setid=       0
 node=   108 local x,y,z forces =    3.6423E+03    2.3742E+04   -2.5252E+05  setid=       0
 node=   113 local x,y,z forces =    1.8533E+04    2.8711E+04   -2.5903E+05  setid=       0
 node=   118 local x,y,z forces =    4.2964E+04    3.7725E+04   -2.7054E+05  setid=       0
 node=   123 local x,y,z forces =    3.5012E+04    4.0472E+04   -1.4364E+05  setid=       0
 node=  6253 local x,y,z forces =    3.5015E+04   -4.0472E+04    0.0000E+00  setid=       0
 node=  6258 local x,y,z forces =    4.2971E+04   -3.7725E+04    0.0000E+00  setid=       0
 node=  6263 local x,y,z forces =    1.8541E+04   -2.8711E+04    0.0000E+00  setid=       0
 node=  6268 local x,y,z forces =    3.6506E+03   -2.3742E+04    0.0000E+00  setid=       0
 node=  6273 local x,y,z forces =   -4.9865E+03   -2.1971E+04    0.0000E+00  setid=       0
 node=  6278 local x,y,z forces =   -8.9987E+03   -1.8953E+04    0.0000E+00  setid=       0
 node=  6283 local x,y,z forces =   -1.1445E+04   -1.6442E+04    0.0000E+00  setid=       0
 node=  6288 local x,y,z forces =   -1.2621E+04   -1.3544E+04    0.0000E+00  setid=       0
 node=  6293 local x,y,z forces =   -1.3362E+04   -1.0862E+04    0.0000E+00  setid=       0
 node=  6298 local x,y,z forces =   -1.3713E+04   -8.0958E+03    0.0000E+00  setid=       0
 node=  6303 local x,y,z forces =   -1.3938E+04   -5.4024E+03    0.0000E+00  setid=       0
 node=  6308 local x,y,z forces =   -1.4024E+04   -2.6926E+03    0.0000E+00  setid=       0
 node=  6313 local x,y,z forces =   -1.4065E+04   -2.1610E-09    0.0000E+00  setid=       0
 node=  6318 local x,y,z forces =   -1.4024E+04    2.6926E+03    0.0000E+00  setid=       0
 node=  6323 local x,y,z forces =   -1.3938E+04    5.4024E+03    0.0000E+00  setid=       0
 node=  6328 local x,y,z forces =   -1.3713E+04    8.0958E+03    0.0000E+00  setid=       0
 node=  6333 local x,y,z forces =   -1.3362E+04    1.0862E+04    0.0000E+00  setid=       0
 node=  6338 local x,y,z forces =   -1.2621E+04    1.3544E+04    0.0000E+00  setid=       0
 node=  6343 local x,y,z forces =   -1.1445E+04    1.6442E+04    0.0000E+00  setid=       0
 node=  6348 local x,y,z forces =   -8.9987E+03    1.8953E+04    0.0000E+00  setid=       0
 node=  6353 local x,y,z forces =   -4.9865E+03    2.1971E+04    0.0000E+00  setid=       0
 node=  6358 local x,y,z forces =    3.6506E+03    2.3742E+04    0.0000E+00  setid=       0
 node=  6363 local x,y,z forces =    1.8541E+04    2.8711E+04    0.0000E+00  setid=       0
 node=  6368 local x,y,z forces =    4.2971E+04    3.7725E+04    0.0000E+00  setid=       0
 node=  6373 local x,y,z forces =    3.5015E+04    4.0472E+04    0.0000E+00  setid=       0
             force resultants   =    3.1272E+01   -1.6298E-09   -5.9690E+06
 output at time =   6.50000E-03
 node=     3 local x,y,z forces =    3.6401E+04   -4.0526E+04   -1.4473E+05  setid=       0
 node=     8 local x,y,z forces =    4.4595E+04   -3.7894E+04   -2.7229E+05  setid=       0
 node=    13 local x,y,z forces =    1.9158E+04   -2.8851E+04   -2.6042E+05  setid=       0
 node=    18 local x,y,z forces =    3.6476E+03   -2.3865E+04   -2.5370E+05  setid=       0
 node=    23 local x,y,z forces =   -5.3495E+03   -2.2089E+04   -2.4886E+05  setid=       0
 node=    28 local x,y,z forces =   -9.5273E+03   -1.9059E+04   -2.4601E+05  setid=       0
 node=    33 local x,y,z forces =   -1.2075E+04   -1.6537E+04   -2.4402E+05  setid=       0
 node=    38 local x,y,z forces =   -1.3300E+04   -1.3624E+04   -2.4277E+05  setid=       0
 node=    43 local x,y,z forces =   -1.4072E+04   -1.0928E+04   -2.4189E+05  setid=       0
 node=    48 local x,y,z forces =   -1.4437E+04   -8.1459E+03   -2.4132E+05  setid=       0
 node=    53 local x,y,z forces =   -1.4672E+04   -5.4362E+03   -2.4094E+05  setid=       0
 node=    58 local x,y,z forces =   -1.4761E+04   -2.7096E+03   -2.4074E+05  setid=       0
 node=    63 local x,y,z forces =   -1.4805E+04    1.1496E-09   -2.4067E+05  setid=       0
 node=    68 local x,y,z forces =   -1.4761E+04    2.7096E+03   -2.4074E+05  setid=       0
 node=    73 local x,y,z forces =   -1.4672E+04    5.4362E+03   -2.4094E+05  setid=       0
 node=    78 local x,y,z forces =   -1.4437E+04    8.1459E+03   -2.4132E+05  setid=       0
 node=    83 local x,y,z forces =   -1.4072E+04    1.0928E+04   -2.4189E+05  setid=       0
 node=    88 local x,y,z forces =   -1.3300E+04    1.3624E+04   -2.4277E+05  setid=       0
 node=    93 local x,y,z forces =   -1.2075E+04    1.6537E+04   -2.4402E+05  setid=       0
 node=    98 local x,y,z forces =   -9.5273E+03    1.9059E+04   -2.4601E+05  setid=       0
 node=   103 local x,y,z forces =   -5.3495E+03    2.2089E+04   -2.4886E+05  setid=       0
 node=   108 local x,y,z forces =    3.6476E+03    2.3865E+04   -2.5370E+05  setid=       0
 node=   113 local x,y,z forces =    1.9158E+04    2.8851E+04   -2.6042E+05  setid=       0
 node=   118 local x,y,z forces =    4.4595E+04    3.7894E+04   -2.7229E+05  setid=       0
 node=   123 local x,y,z forces =    3.6401E+04    4.0526E+04   -1.4473E+05  setid=       0
 node=  6253 local x,y,z forces =    3.6316E+04   -4.0416E+04    0.0000E+00  setid=       0
 node=  6258 local x,y,z forces =    4.4427E+04   -3.7894E+04    0.0000E+00  setid=       0
 node=  6263 local x,y,z forces =    1.8990E+04   -2.8851E+04    0.0000E+00  setid=       0
 node=  6268 local x,y,z forces =    3.4799E+03   -2.3865E+04    0.0000E+00  setid=       0
 node=  6273 local x,y,z forces =   -5.5170E+03   -2.2089E+04    0.0000E+00  setid=       0
 node=  6278 local x,y,z forces =   -9.6947E+03   -1.9059E+04    0.0000E+00  setid=       0
 node=  6283 local x,y,z forces =   -1.2242E+04   -1.6537E+04    0.0000E+00  setid=       0
 node=  6288 local x,y,z forces =   -1.3467E+04   -1.3624E+04    0.0000E+00  setid=       0
 node=  6293 local x,y,z forces =   -1.4239E+04   -1.0928E+04    0.0000E+00  setid=       0
 node=  6298 local x,y,z forces =   -1.4604E+04   -8.1459E+03    0.0000E+00  setid=       0
 node=  6303 local x,y,z forces =   -1.4839E+04   -5.4362E+03    0.0000E+00  setid=       0
 node=  6308 local x,y,z forces =   -1.4928E+04   -2.7096E+03    0.0000E+00  setid=       0
 node=  6313 local x,y,z forces =   -1.4972E+04   -1.6626E-09    0.0000E+00  setid=       0
 node=  6318 local x,y,z forces =   -1.4928E+04    2.7096E+03    0.0000E+00  setid=       0
 node=  6323 local x,y,z forces =   -1.4839E+04    5.4362E+03    0.0000E+00  setid=       0
 node=  6328 local x,y,z forces =   -1.4604E+04    8.1459E+03    0.0000E+00  setid=       0
 node=  6333 local x,y,z forces =   -1.4239E+04    1.0928E+04    0.0000E+00  setid=       0
 node=  6338 local x,y,z forces =   -1.3467E+04    1.3624E+04    0.0000E+00  setid=       0
 node=  6343 local x,y,z forces =   -1.2242E+04    1.6537E+04    0.0000E+00  setid=       0
 node=  6348 local x,y,z forces =   -9.6947E+03    1.9059E+04    0.0000E+00  setid=       0
 node=  6353 local x,y,z forces =   -5.5170E+03    2.2089E+04    0.0000E+00  setid=       0
 node=  6358 local x,y,z forces =    3.4799E+03    2.3865E+04    0.0000E+00  setid=       0
 node=  6363 local x,y,z forces =    1.8990E+04    2.8851E+04    0.0000E+00  setid=       0
 node=  6368 local x,y,z forces =    4.4427E+04    3.7894E+04    0.0000E+00  setid=       0
 node=  6373 local x,y,z forces =    3.6316E+04    4.0416E+04    0.0000E+00  setid=       0
             force resultants   =   -1.1199E+04    4.0105E-08   -5.9960E+06
 output at time =   7.00000E-03
 node=     3 local x,y,z forces =    3.7876E+04   -4.0498E+04   -1.4517E+05  setid=       0
 node=     8 local x,y,z forces =    4.6415E+04   -3.7861E+04   -2.7279E+05  setid=       0
 node=    13 local x,y,z forces =    1.9953E+04   -2.8839E+04   -2.6059E+05  setid=       0
 node=    18 local x,y,z forces =    3.8182E+03   -2.3863E+04   -2.5367E+05  setid=       0
 node=    23 local x,y,z forces =   -5.5417E+03   -2.2091E+04   -2.4873E+05  setid=       0
 node=    28 local x,y,z forces =   -9.8891E+03   -1.9065E+04   -2.4583E+05  setid=       0
 node=    33 local x,y,z forces =   -1.2541E+04   -1.6545E+04   -2.4381E+05  setid=       0
 node=    38 local x,y,z forces =   -1.3816E+04   -1.3634E+04   -2.4256E+05  setid=       0
 node=    43 local x,y,z forces =   -1.4621E+04   -1.0937E+04   -2.4167E+05  setid=       0
 node=    48 local x,y,z forces =   -1.5001E+04   -8.1540E+03   -2.4110E+05  setid=       0
 node=    53 local x,y,z forces =   -1.5246E+04   -5.4421E+03   -2.4072E+05  setid=       0
 node=    58 local x,y,z forces =   -1.5339E+04   -2.7127E+03   -2.4052E+05  setid=       0
 node=    63 local x,y,z forces =   -1.5385E+04    1.1569E-09   -2.4045E+05  setid=       0
 node=    68 local x,y,z forces =   -1.5339E+04    2.7127E+03   -2.4052E+05  setid=       0
 node=    73 local x,y,z forces =   -1.5246E+04    5.4421E+03   -2.4072E+05  setid=       0
 node=    78 local x,y,z forces =   -1.5001E+04    8.1540E+03   -2.4110E+05  setid=       0
 node=    83 local x,y,z forces =   -1.4621E+04    1.0937E+04   -2.4167E+05  setid=       0
 node=    88 local x,y,z forces =   -1.3816E+04    1.3634E+04   -2.4256E+05  setid=       0
 node=    93 local x,y,z forces =   -1.2541E+04    1.6545E+04   -2.4381E+05  setid=       0
 node=    98 local x,y,z forces =   -9.8891E+03    1.9065E+04   -2.4583E+05  setid=       0
 node=   103 local x,y,z forces =   -5.5417E+03    2.2091E+04   -2.4873E+05  setid=       0
 node=   108 local x,y,z forces =    3.8182E+03    2.3863E+04   -2.5367E+05  setid=       0
 node=   113 local x,y,z forces =    1.9953E+04    2.8839E+04   -2.6059E+05  setid=       0
 node=   118 local x,y,z forces =    4.6415E+04    3.7861E+04   -2.7279E+05  setid=       0
 node=   123 local x,y,z forces =    3.7876E+04    4.0498E+04   -1.4517E+05  setid=       0
 node=  6253 local x,y,z forces =    3.7800E+04   -4.0402E+04    0.0000E+00  setid=       0
 node=  6258 local x,y,z forces =    4.6263E+04   -3.7861E+04    0.0000E+00  setid=       0
 node=  6263 local x,y,z forces =    1.9801E+04   -2.8839E+04    0.0000E+00  setid=       0
 node=  6268 local x,y,z forces =    3.6669E+03   -2.3863E+04    0.0000E+00  setid=       0
 node=  6273 local x,y,z forces =   -5.6928E+03   -2.2091E+04    0.0000E+00  setid=       0
 node=  6278 local x,y,z forces =   -1.0040E+04   -1.9065E+04    0.0000E+00  setid=       0
 node=  6283 local x,y,z forces =   -1.2691E+04   -1.6545E+04    0.0000E+00  setid=       0
 node=  6288 local x,y,z forces =   -1.3967E+04   -1.3634E+04    0.0000E+00  setid=       0
 node=  6293 local x,y,z forces =   -1.4771E+04   -1.0937E+04    0.0000E+00  setid=       0
 node=  6298 local x,y,z forces =   -1.5151E+04   -8.1540E+03    0.0000E+00  setid=       0
 node=  6303 local x,y,z forces =   -1.5397E+04   -5.4421E+03    0.0000E+00  setid=       0
 node=  6308 local x,y,z forces =   -1.5490E+04   -2.7127E+03    0.0000E+00  setid=       0
 node=  6313 local x,y,z forces =   -1.5535E+04    8.8767E-10    0.0000E+00  setid=       0
 node=  6318 local x,y,z forces =   -1.5490E+04    2.7127E+03    0.0000E+00  setid=       0
 node=  6323 local x,y,z forces =   -1.5397E+04    5.4421E+03    0.0000E+00  setid=       0
 node=  6328 local x,y,z forces =   -1.5151E+04    8.1540E+03    0.0000E+00  setid=       0
 node=  6333 local x,y,z forces =   -1.4771E+04    1.0937E+04    0.0000E+00  setid=       0
 node=  6338 local x,y,z forces =   -1.3967E+04    1.3634E+04    0.0000E+00  setid=       0
 node=  6343 local x,y,z forces =   -1.2691E+04    1.6545E+04    0.0000E+00  setid=       0
 node=  6348 local x,y,z forces =   -1.0040E+04    1.9065E+04    0.0000E+00  setid=       0
 node=  6353 local x,y,z forces =   -5.6928E+03    2.2091E+04    0.0000E+00  setid=       0
 node=  6358 local x,y,z forces =    3.6669E+03    2.3863E+04    0.0000E+00  setid=       0
 node=  6363 local x,y,z forces =    1.9801E+04    2.8839E+04    0.0000E+00  setid=       0
 node=  6368 local x,y,z forces =    4.6263E+04    3.7861E+04    0.0000E+00  setid=       0
 node=  6373 local x,y,z forces =    3.7800E+04    4.0402E+04    0.0000E+00  setid=       0
             force resultants   =   -1.0124E+04    3.3018E-08   -5.9948E+06
 output at time =   7.50000E-03
 node=     3 local x,y,z forces =    3.9292E+04   -4.0471E+04   -1.4561E+05  setid=       0
 node=     8 local x,y,z forces =    4.8163E+04   -3.7830E+04   -2.7331E+05  setid=       0
 node=    13 local x,y,z forces =    2.0717E+04   -2.8828E+04   -2.6078E+05  setid=       0
 node=    18 local x,y,z forces =    3.9826E+03   -2.3862E+04   -2.5366E+05  setid=       0
 node=    23 local x,y,z forces =   -5.7259E+03   -2.2095E+04   -2.4861E+05  setid=       0
 node=    28 local x,y,z forces =   -1.0236E+04   -1.9073E+04   -2.4566E+05  setid=       0
 node=    33 local x,y,z forces =   -1.2987E+04   -1.6555E+04   -2.4362E+05  setid=       0
 node=    38 local x,y,z forces =   -1.4312E+04   -1.3645E+04   -2.4235E+05  setid=       0
 node=    43 local x,y,z forces =   -1.5147E+04   -1.0947E+04   -2.4146E+05  setid=       0
 node=    48 local x,y,z forces =   -1.5542E+04   -8.1625E+03   -2.4089E+05  setid=       0
 node=    53 local x,y,z forces =   -1.5797E+04   -5.4483E+03   -2.4052E+05  setid=       0
 node=    58 local x,y,z forces =   -1.5894E+04   -2.7160E+03   -2.4032E+05  setid=       0
 node=    63 local x,y,z forces =   -1.5942E+04    3.0195E-10   -2.4025E+05  setid=       0
 node=    68 local x,y,z forces =   -1.5894E+04    2.7160E+03   -2.4032E+05  setid=       0
 node=    73 local x,y,z forces =   -1.5797E+04    5.4483E+03   -2.4052E+05  setid=       0
 node=    78 local x,y,z forces =   -1.5542E+04    8.1625E+03   -2.4089E+05  setid=       0
 node=    83 local x,y,z forces =   -1.5147E+04    1.0947E+04   -2.4146E+05  setid=       0
 node=    88 local x,y,z forces =   -1.4312E+04    1.3645E+04   -2.4235E+05  setid=       0
 node=    93 local x,y,z forces =   -1.2987E+04    1.6555E+04   -2.4362E+05  setid=       0
 node=    98 local x,y,z forces =   -1.0236E+04    1.9073E+04   -2.4566E+05  setid=       0
 node=   103 local x,y,z forces =   -5.7259E+03    2.2095E+04   -2.4861E+05  setid=       0
 node=   108 local x,y,z forces =    3.9826E+03    2.3862E+04   -2.5366E+05  setid=       0
 node=   113 local x,y,z forces =    2.0717E+04    2.8828E+04   -2.6078E+05  setid=       0
 node=   118 local x,y,z forces =    4.8163E+04    3.7830E+04   -2.7331E+05  setid=       0
 node=   123 local x,y,z forces =    3.9292E+04    4.0471E+04   -1.4561E+05  setid=       0
 node=  6253 local x,y,z forces =    3.9225E+04   -4.0388E+04    0.0000E+00  setid=       0
 node=  6258 local x,y,z forces =    4.8027E+04   -3.7830E+04    0.0000E+00  setid=       0
 node=  6263 local x,y,z forces =    2.0582E+04   -2.8828E+04    0.0000E+00  setid=       0
 node=  6268 local x,y,z forces =    3.8475E+03   -2.3862E+04    0.0000E+00  setid=       0
 node=  6273 local x,y,z forces =   -5.8609E+03   -2.2095E+04    0.0000E+00  setid=       0
 node=  6278 local x,y,z forces =   -1.0371E+04   -1.9073E+04    0.0000E+00  setid=       0
 node=  6283 local x,y,z forces =   -1.3122E+04   -1.6555E+04    0.0000E+00  setid=       0
 node=  6288 local x,y,z forces =   -1.4446E+04   -1.3645E+04    0.0000E+00  setid=       0
 node=  6293 local x,y,z forces =   -1.5282E+04   -1.0947E+04    0.0000E+00  setid=       0
 node=  6298 local x,y,z forces =   -1.5677E+04   -8.1625E+03    0.0000E+00  setid=       0
 node=  6303 local x,y,z forces =   -1.5932E+04   -5.4483E+03    0.0000E+00  setid=       0
 node=  6308 local x,y,z forces =   -1.6029E+04   -2.7160E+03    0.0000E+00  setid=       0
 node=  6313 local x,y,z forces =   -1.6076E+04   -2.2519E-09    0.0000E+00  setid=       0
 node=  6318 local x,y,z forces =   -1.6029E+04    2.7160E+03    0.0000E+00  setid=       0
 node=  6323 local x,y,z forces =   -1.5932E+04    5.4483E+03    0.0000E+00  setid=       0
 node=  6328 local x,y,z forces =   -1.5677E+04    8.1625E+03    0.0000E+00  setid=       0
 node=  6333 local x,y,z forces =   -1.5282E+04    1.0947E+04    0.0000E+00  setid=       0
 node=  6338 local x,y,z forces =   -1.4446E+04    1.3645E+04    0.0000E+00  setid=       0
 node=  6343 local x,y,z forces =   -1.3122E+04    1.6555E+04    0.0000E+00  setid=       0
 node=  6348 local x,y,z forces =   -1.0371E+04    1.9073E+04    0.0000E+00  setid=       0
 node=  6353 local x,y,z forces =   -5.8609E+03    2.2095E+04    0.0000E+00  setid=       0
 node=  6358 local x,y,z forces =    3.8475E+03    2.3862E+04    0.0000E+00  setid=       0
 node=  6363 local x,y,z forces =    2.0582E+04    2.8828E+04    0.0000E+00  setid=       0
 node=  6368 local x,y,z forces =    4.8027E+04    3.7830E+04    0.0000E+00  setid=       0
 node=  6373 local x,y,z forces =    3.9225E+04    4.0388E+04    0.0000E+00  setid=       0
             force resultants   =   -9.0698E+03    2.0445E-08   -5.9938E+06
 output at time =   8.00000E-03
 node=     3 local x,y,z forces =    4.0653E+04   -4.0444E+04   -1.4607E+05  setid=       0
 node=     8 local x,y,z forces =    4.9841E+04   -3.7802E+04   -2.7385E+05  setid=       0
 node=    13 local x,y,z forces =    2.1451E+04   -2.8820E+04   -2.6098E+05  setid=       0
 node=    18 local x,y,z forces =    4.1393E+03   -2.3864E+04   -2.5367E+05  setid=       0
 node=    23 local x,y,z forces =   -5.9043E+03   -2.2101E+04   -2.4851E+05  setid=       0
 node=    28 local x,y,z forces =   -1.0571E+04   -1.9082E+04   -2.4551E+05  setid=       0
 node=    33 local x,y,z forces =   -1.3418E+04   -1.6566E+04   -2.4345E+05  setid=       0
 node=    38 local x,y,z forces =   -1.4790E+04   -1.3656E+04   -2.4217E+05  setid=       0
 node=    43 local x,y,z forces =   -1.5655E+04   -1.0959E+04   -2.4127E+05  setid=       0
 node=    48 local x,y,z forces =   -1.6065E+04   -8.1719E+03   -2.4071E+05  setid=       0
 node=    53 local x,y,z forces =   -1.6329E+04   -5.4550E+03   -2.4033E+05  setid=       0
 node=    58 local x,y,z forces =   -1.6430E+04   -2.7195E+03   -2.4014E+05  setid=       0
 node=    63 local x,y,z forces =   -1.6479E+04   -1.5643E-10   -2.4007E+05  setid=       0
 node=    68 local x,y,z forces =   -1.6430E+04    2.7195E+03   -2.4014E+05  setid=       0
 node=    73 local x,y,z forces =   -1.6329E+04    5.4550E+03   -2.4033E+05  setid=       0
 node=    78 local x,y,z forces =   -1.6065E+04    8.1719E+03   -2.4071E+05  setid=       0
 node=    83 local x,y,z forces =   -1.5655E+04    1.0959E+04   -2.4127E+05  setid=       0
 node=    88 local x,y,z forces =   -1.4790E+04    1.3656E+04   -2.4217E+05  setid=       0
 node=    93 local x,y,z forces =   -1.3418E+04    1.6566E+04   -2.4345E+05  setid=       0
 node=    98 local x,y,z forces =   -1.0571E+04    1.9082E+04   -2.4551E+05  setid=       0
 node=   103 local x,y,z forces =   -5.9043E+03    2.2101E+04   -2.4851E+05  setid=       0
 node=   108 local x,y,z forces =    4.1393E+03    2.3864E+04   -2.5367E+05  setid=       0
 node=   113 local x,y,z forces =    2.1451E+04    2.8820E+04   -2.6098E+05  setid=       0
 node=   118 local x,y,z forces =    4.9841E+04    3.7802E+04   -2.7385E+05  setid=       0
 node=   123 local x,y,z forces =    4.0653E+04    4.0444E+04   -1.4607E+05  setid=       0
 node=  6253 local x,y,z forces =    4.0592E+04   -4.0372E+04    0.0000E+00  setid=       0
 node=  6258 local x,y,z forces =    4.9719E+04   -3.7802E+04    0.0000E+00  setid=       0
 node=  6263 local x,y,z forces =    2.1329E+04   -2.8820E+04    0.0000E+00  setid=       0
 node=  6268 local x,y,z forces =    4.0177E+03   -2.3864E+04    0.0000E+00  setid=       0
 node=  6273 local x,y,z forces =   -6.0257E+03   -2.2101E+04    0.0000E+00  setid=       0
 node=  6278 local x,y,z forces =   -1.0692E+04   -1.9082E+04    0.0000E+00  setid=       0
 node=  6283 local x,y,z forces =   -1.3540E+04   -1.6566E+04    0.0000E+00  setid=       0
 node=  6288 local x,y,z forces =   -1.4911E+04   -1.3656E+04    0.0000E+00  setid=       0
 node=  6293 local x,y,z forces =   -1.5776E+04   -1.0959E+04    0.0000E+00  setid=       0
 node=  6298 local x,y,z forces =   -1.6186E+04   -8.1719E+03    0.0000E+00  setid=       0
[...]
 node=  6333 local x,y,z forces =   -3.6444E+04    1.2161E+04    0.0000E+00  setid=       0
 node=  6338 local x,y,z forces =   -3.4229E+04    1.4998E+04    0.0000E+00  setid=       0
 node=  6343 local x,y,z forces =   -3.0819E+04    1.7936E+04    0.0000E+00  setid=       0
 node=  6348 local x,y,z forces =   -2.3985E+04    2.0389E+04    0.0000E+00  setid=       0
 node=  6353 local x,y,z forces =   -1.2944E+04    2.3204E+04    0.0000E+00  setid=       0
 node=  6358 local x,y,z forces =    1.0501E+04    2.4698E+04    0.0000E+00  setid=       0
 node=  6363 local x,y,z forces =    5.0716E+04    2.9044E+04    0.0000E+00  setid=       0
 node=  6368 local x,y,z forces =    1.1642E+05    3.6748E+04    0.0000E+00  setid=       0
 node=  6373 local x,y,z forces =    9.4518E+04    3.8352E+04    0.0000E+00  setid=       0
             force resultants   =   -5.1652E+02    2.7649E-09   -6.1174E+06
 output at time =   4.85000E-02
 node=     3 local x,y,z forces =    9.4915E+04   -3.8327E+04   -1.8576E+05  setid=       0
 node=     8 local x,y,z forces =    1.1692E+05   -3.6735E+04   -3.2363E+05  setid=       0
 node=    13 local x,y,z forces =    5.0943E+04   -2.9047E+04   -2.8442E+05  setid=       0
 node=    18 local x,y,z forces =    1.0560E+04   -2.4708E+04   -2.6139E+05  setid=       0
 node=    23 local x,y,z forces =   -1.2984E+04   -2.3218E+04   -2.4733E+05  setid=       0
 node=    28 local x,y,z forces =   -2.4074E+04   -2.0405E+04   -2.4052E+05  setid=       0
 node=    33 local x,y,z forces =   -3.0939E+04   -1.7954E+04   -2.3634E+05  setid=       0
 node=    38 local x,y,z forces =   -3.4367E+04   -1.5014E+04   -2.3431E+05  setid=       0
 node=    43 local x,y,z forces =   -3.6594E+04   -1.2176E+04   -2.3307E+05  setid=       0
 node=    48 local x,y,z forces =   -3.7727E+04   -9.1663E+03   -2.3252E+05  setid=       0
 node=    53 local x,y,z forces =   -3.8477E+04   -6.1562E+03   -2.3219E+05  setid=       0
 node=    58 local x,y,z forces =   -3.8795E+04   -3.0821E+03   -2.3209E+05  setid=       0
 node=    63 local x,y,z forces =   -3.8938E+04   -3.7471E-10   -2.3203E+05  setid=       0
 node=    68 local x,y,z forces =   -3.8795E+04    3.0821E+03   -2.3209E+05  setid=       0
 node=    73 local x,y,z forces =   -3.8477E+04    6.1562E+03   -2.3219E+05  setid=       0
 node=    78 local x,y,z forces =   -3.7727E+04    9.1663E+03   -2.3252E+05  setid=       0
 node=    83 local x,y,z forces =   -3.6594E+04    1.2176E+04   -2.3307E+05  setid=       0
 node=    88 local x,y,z forces =   -3.4367E+04    1.5014E+04   -2.3431E+05  setid=       0
 node=    93 local x,y,z forces =   -3.0939E+04    1.7954E+04   -2.3634E+05  setid=       0
 node=    98 local x,y,z forces =   -2.4074E+04    2.0405E+04   -2.4052E+05  setid=       0
 node=   103 local x,y,z forces =   -1.2984E+04    2.3218E+04   -2.4733E+05  setid=       0
 node=   108 local x,y,z forces =    1.0560E+04    2.4708E+04   -2.6139E+05  setid=       0
 node=   113 local x,y,z forces =    5.0943E+04    2.9047E+04   -2.8442E+05  setid=       0
 node=   118 local x,y,z forces =    1.1692E+05    3.6735E+04   -3.2363E+05  setid=       0
 node=   123 local x,y,z forces =    9.4915E+04    3.8327E+04   -1.8576E+05  setid=       0
 node=  6253 local x,y,z forces =    9.4912E+04   -3.8325E+04    0.0000E+00  setid=       0
 node=  6258 local x,y,z forces =    1.1691E+05   -3.6735E+04    0.0000E+00  setid=       0
 node=  6263 local x,y,z forces =    5.0937E+04   -2.9047E+04    0.0000E+00  setid=       0
 node=  6268 local x,y,z forces =    1.0553E+04   -2.4708E+04    0.0000E+00  setid=       0
 node=  6273 local x,y,z forces =   -1.2991E+04   -2.3218E+04    0.0000E+00  setid=       0
 node=  6278 local x,y,z forces =   -2.4081E+04   -2.0405E+04    0.0000E+00  setid=       0
 node=  6283 local x,y,z forces =   -3.0946E+04   -1.7954E+04    0.0000E+00  setid=       0
 node=  6288 local x,y,z forces =   -3.4373E+04   -1.5014E+04    0.0000E+00  setid=       0
 node=  6293 local x,y,z forces =   -3.6600E+04   -1.2176E+04    0.0000E+00  setid=       0
 node=  6298 local x,y,z forces =   -3.7734E+04   -9.1663E+03    0.0000E+00  setid=       0
 node=  6303 local x,y,z forces =   -3.8483E+04   -6.1562E+03    0.0000E+00  setid=       0
 node=  6308 local x,y,z forces =   -3.8802E+04   -3.0821E+03    0.0000E+00  setid=       0
 node=  6313 local x,y,z forces =   -3.8944E+04   -3.9181E-09    0.0000E+00  setid=       0
 node=  6318 local x,y,z forces =   -3.8802E+04    3.0821E+03    0.0000E+00  setid=       0
 node=  6323 local x,y,z forces =   -3.8483E+04    6.1562E+03    0.0000E+00  setid=       0
 node=  6328 local x,y,z forces =   -3.7734E+04    9.1663E+03    0.0000E+00  setid=       0
 node=  6333 local x,y,z forces =   -3.6600E+04    1.2176E+04    0.0000E+00  setid=       0
 node=  6338 local x,y,z forces =   -3.4373E+04    1.5014E+04    0.0000E+00  setid=       0
 node=  6343 local x,y,z forces =   -3.0946E+04    1.7954E+04    0.0000E+00  setid=       0
 node=  6348 local x,y,z forces =   -2.4081E+04    2.0405E+04    0.0000E+00  setid=       0
 node=  6353 local x,y,z forces =   -1.2991E+04    2.3218E+04    0.0000E+00  setid=       0
 node=  6358 local x,y,z forces =    1.0553E+04    2.4708E+04    0.0000E+00  setid=       0
 node=  6363 local x,y,z forces =    5.0937E+04    2.9047E+04    0.0000E+00  setid=       0
 node=  6368 local x,y,z forces =    1.1691E+05    3.6735E+04    0.0000E+00  setid=       0
 node=  6373 local x,y,z forces =    9.4912E+04    3.8325E+04    0.0000E+00  setid=       0
             force resultants   =   -5.0846E+02   -6.6211E-10   -6.1192E+06
 output at time =   4.90000E-02
 node=     3 local x,y,z forces =    9.5305E+04   -3.8300E+04   -1.8624E+05  setid=       0
 node=     8 local x,y,z forces =    1.1741E+05   -3.6723E+04   -3.2424E+05  setid=       0
 node=    13 local x,y,z forces =    5.1161E+04   -2.9050E+04   -2.8472E+05  setid=       0
 node=    18 local x,y,z forces =    1.0612E+04   -2.4719E+04   -2.6149E+05  setid=       0
 node=    23 local x,y,z forces =   -1.3031E+04   -2.3232E+04   -2.4733E+05  setid=       0
 node=    28 local x,y,z forces =   -2.4169E+04   -2.0422E+04   -2.4047E+05  setid=       0
 node=    33 local x,y,z forces =   -3.1065E+04   -1.7971E+04   -2.3626E+05  setid=       0
 node=    38 local x,y,z forces =   -3.4509E+04   -1.5031E+04   -2.3422E+05  setid=       0
 node=    43 local x,y,z forces =   -3.6748E+04   -1.2191E+04   -2.3298E+05  setid=       0
 node=    48 local x,y,z forces =   -3.7889E+04   -9.1786E+03   -2.3243E+05  setid=       0
 node=    53 local x,y,z forces =   -3.8643E+04   -6.1649E+03   -2.3210E+05  setid=       0
 node=    58 local x,y,z forces =   -3.8964E+04   -3.0865E+03   -2.3200E+05  setid=       0
 node=    63 local x,y,z forces =   -3.9108E+04   -2.2192E-10   -2.3194E+05  setid=       0
 node=    68 local x,y,z forces =   -3.8964E+04    3.0865E+03   -2.3200E+05  setid=       0
 node=    73 local x,y,z forces =   -3.8643E+04    6.1649E+03   -2.3210E+05  setid=       0
 node=    78 local x,y,z forces =   -3.7889E+04    9.1786E+03   -2.3243E+05  setid=       0
 node=    83 local x,y,z forces =   -3.6748E+04    1.2191E+04   -2.3298E+05  setid=       0
 node=    88 local x,y,z forces =   -3.4509E+04    1.5031E+04   -2.3422E+05  setid=       0
 node=    93 local x,y,z forces =   -3.1065E+04    1.7971E+04   -2.3626E+05  setid=       0
 node=    98 local x,y,z forces =   -2.4169E+04    2.0422E+04   -2.4047E+05  setid=       0
 node=   103 local x,y,z forces =   -1.3031E+04    2.3232E+04   -2.4733E+05  setid=       0
 node=   108 local x,y,z forces =    1.0612E+04    2.4719E+04   -2.6149E+05  setid=       0
 node=   113 local x,y,z forces =    5.1161E+04    2.9050E+04   -2.8472E+05  setid=       0
 node=   118 local x,y,z forces =    1.1741E+05    3.6723E+04   -3.2424E+05  setid=       0
 node=   123 local x,y,z forces =    9.5305E+04    3.8300E+04   -1.8624E+05  setid=       0
 node=  6253 local x,y,z forces =    9.5302E+04   -3.8299E+04    0.0000E+00  setid=       0
 node=  6258 local x,y,z forces =    1.1740E+05   -3.6723E+04    0.0000E+00  setid=       0
 node=  6263 local x,y,z forces =    5.1155E+04   -2.9050E+04    0.0000E+00  setid=       0
 node=  6268 local x,y,z forces =    1.0606E+04   -2.4719E+04    0.0000E+00  setid=       0
 node=  6273 local x,y,z forces =   -1.3037E+04   -2.3232E+04    0.0000E+00  setid=       0
 node=  6278 local x,y,z forces =   -2.4175E+04   -2.0422E+04    0.0000E+00  setid=       0
 node=  6283 local x,y,z forces =   -3.1071E+04   -1.7971E+04    0.0000E+00  setid=       0
 node=  6288 local x,y,z forces =   -3.4516E+04   -1.5031E+04    0.0000E+00  setid=       0
 node=  6293 local x,y,z forces =   -3.6755E+04   -1.2191E+04    0.0000E+00  setid=       0
 node=  6298 local x,y,z forces =   -3.7895E+04   -9.1786E+03    0.0000E+00  setid=       0
 node=  6303 local x,y,z forces =   -3.8650E+04   -6.1649E+03    0.0000E+00  setid=       0
 node=  6308 local x,y,z forces =   -3.8970E+04   -3.0865E+03    0.0000E+00  setid=       0
 node=  6313 local x,y,z forces =   -3.9114E+04   -3.5252E-09    0.0000E+00  setid=       0
 node=  6318 local x,y,z forces =   -3.8970E+04    3.0865E+03    0.0000E+00  setid=       0
 node=  6323 local x,y,z forces =   -3.8650E+04    6.1649E+03    0.0000E+00  setid=       0
 node=  6328 local x,y,z forces =   -3.7895E+04    9.1786E+03    0.0000E+00  setid=       0
 node=  6333 local x,y,z forces =   -3.6755E+04    1.2191E+04    0.0000E+00  setid=       0
 node=  6338 local x,y,z forces =   -3.4516E+04    1.5031E+04    0.0000E+00  setid=       0
 node=  6343 local x,y,z forces =   -3.1071E+04    1.7971E+04    0.0000E+00  setid=       0
 node=  6348 local x,y,z forces =   -2.4175E+04    2.0422E+04    0.0000E+00  setid=       0
 node=  6353 local x,y,z forces =   -1.3037E+04    2.3232E+04    0.0000E+00  setid=       0
 node=  6358 local x,y,z forces =    1.0606E+04    2.4719E+04    0.0000E+00  setid=       0
 node=  6363 local x,y,z forces =    5.1155E+04    2.9050E+04    0.0000E+00  setid=       0
 node=  6368 local x,y,z forces =    1.1740E+05    3.6723E+04    0.0000E+00  setid=       0
 node=  6373 local x,y,z forces =    9.5302E+04    3.8299E+04    0.0000E+00  setid=       0
             force resultants   =   -5.0061E+02    3.0996E-09   -6.1209E+06
 output at time =   4.95000E-02
 node=     3 local x,y,z forces =    9.5691E+04   -3.8274E+04   -1.8672E+05  setid=       0
 node=     8 local x,y,z forces =    1.1789E+05   -3.6710E+04   -3.2485E+05  setid=       0
 node=    13 local x,y,z forces =    5.1378E+04   -2.9053E+04   -2.8501E+05  setid=       0
 node=    18 local x,y,z forces =    1.0664E+04   -2.4730E+04   -2.6159E+05  setid=       0
 node=    23 local x,y,z forces =   -1.3076E+04   -2.3247E+04   -2.4732E+05  setid=       0
 node=    28 local x,y,z forces =   -2.4262E+04   -2.0438E+04   -2.4042E+05  setid=       0
 node=    33 local x,y,z forces =   -3.1189E+04   -1.7988E+04   -2.3619E+05  setid=       0
 node=    38 local x,y,z forces =   -3.4651E+04   -1.5048E+04   -2.3414E+05  setid=       0
 node=    43 local x,y,z forces =   -3.6902E+04   -1.2206E+04   -2.3289E+05  setid=       0
 node=    48 local x,y,z forces =   -3.8049E+04   -9.1910E+03   -2.3234E+05  setid=       0
 node=    53 local x,y,z forces =   -3.8808E+04   -6.1736E+03   -2.3201E+05  setid=       0
 node=    58 local x,y,z forces =   -3.9131E+04   -3.0910E+03   -2.3191E+05  setid=       0
 node=    63 local x,y,z forces =   -3.9276E+04   -1.5643E-10   -2.3185E+05  setid=       0
 node=    68 local x,y,z forces =   -3.9131E+04    3.0910E+03   -2.3191E+05  setid=       0
 node=    73 local x,y,z forces =   -3.8808E+04    6.1736E+03   -2.3201E+05  setid=       0
 node=    78 local x,y,z forces =   -3.8049E+04    9.1910E+03   -2.3234E+05  setid=       0
 node=    83 local x,y,z forces =   -3.6902E+04    1.2206E+04   -2.3289E+05  setid=       0
 node=    88 local x,y,z forces =   -3.4651E+04    1.5048E+04   -2.3414E+05  setid=       0
 node=    93 local x,y,z forces =   -3.1189E+04    1.7988E+04   -2.3619E+05  setid=       0
 node=    98 local x,y,z forces =   -2.4262E+04    2.0438E+04   -2.4042E+05  setid=       0
 node=   103 local x,y,z forces =   -1.3076E+04    2.3247E+04   -2.4732E+05  setid=       0
 node=   108 local x,y,z forces =    1.0664E+04    2.4730E+04   -2.6159E+05  setid=       0
 node=   113 local x,y,z forces =    5.1378E+04    2.9053E+04   -2.8501E+05  setid=       0
 node=   118 local x,y,z forces =    1.1789E+05    3.6710E+04   -3.2485E+05  setid=       0
 node=   123 local x,y,z forces =    9.5691E+04    3.8274E+04   -1.8672E+05  setid=       0
 node=  6253 local x,y,z forces =    9.5688E+04   -3.8272E+04    0.0000E+00  setid=       0
 node=  6258 local x,y,z forces =    1.1788E+05   -3.6710E+04    0.0000E+00  setid=       0
 node=  6263 local x,y,z forces =    5.1371E+04   -2.9053E+04    0.0000E+00  setid=       0
 node=  6268 local x,y,z forces =    1.0657E+04   -2.4730E+04    0.0000E+00  setid=       0
 node=  6273 local x,y,z forces =   -1.3082E+04   -2.3247E+04    0.0000E+00  setid=       0
 node=  6278 local x,y,z forces =   -2.4268E+04   -2.0438E+04    0.0000E+00  setid=       0
 node=  6283 local x,y,z forces =   -3.1195E+04   -1.7988E+04    0.0000E+00  setid=       0
 node=  6288 local x,y,z forces =   -3.4657E+04   -1.5048E+04    0.0000E+00  setid=       0
 node=  6293 local x,y,z forces =   -3.6908E+04   -1.2206E+04    0.0000E+00  setid=       0
 node=  6298 local x,y,z forces =   -3.8055E+04   -9.1910E+03    0.0000E+00  setid=       0
 node=  6303 local x,y,z forces =   -3.8814E+04   -6.1736E+03    0.0000E+00  setid=       0
 node=  6308 local x,y,z forces =   -3.9137E+04   -3.0910E+03    0.0000E+00  setid=       0
 node=  6313 local x,y,z forces =   -3.9282E+04   -3.5689E-09    0.0000E+00  setid=       0
 node=  6318 local x,y,z forces =   -3.9137E+04    3.0910E+03    0.0000E+00  setid=       0
 node=  6323 local x,y,z forces =   -3.8814E+04    6.1736E+03    0.0000E+00  setid=       0
 node=  6328 local x,y,z forces =   -3.8055E+04    9.1910E+03    0.0000E+00  setid=       0
 node=  6333 local x,y,z forces =   -3.6908E+04    1.2206E+04    0.0000E+00  setid=       0
 node=  6338 local x,y,z forces =   -3.4657E+04    1.5048E+04    0.0000E+00  setid=       0
 node=  6343 local x,y,z forces =   -3.1195E+04    1.7988E+04    0.0000E+00  setid=       0
 node=  6348 local x,y,z forces =   -2.4268E+04    2.0438E+04    0.0000E+00  setid=       0
 node=  6353 local x,y,z forces =   -1.3082E+04    2.3247E+04    0.0000E+00  setid=       0
 node=  6358 local x,y,z forces =    1.0657E+04    2.4730E+04    0.0000E+00  setid=       0
 node=  6363 local x,y,z forces =    5.1371E+04    2.9053E+04    0.0000E+00  setid=       0
 node=  6368 local x,y,z forces =    1.1788E+05    3.6710E+04    0.0000E+00  setid=       0
 node=  6373 local x,y,z forces =    9.5688E+04    3.8272E+04    0.0000E+00  setid=       0
             force resultants   =   -4.9296E+02   -9.8953E-10   -6.1227E+06
 output at time =   5.00000E-02
 node=     3 local x,y,z forces =    9.6074E+04   -3.8247E+04   -1.8721E+05  setid=       0
 node=     8 local x,y,z forces =    1.1837E+05   -3.6698E+04   -3.2546E+05  setid=       0
 node=    13 local x,y,z forces =    5.1592E+04   -2.9056E+04   -2.8530E+05  setid=       0
 node=    18 local x,y,z forces =    1.0715E+04   -2.4741E+04   -2.6170E+05  setid=       0
 node=    23 local x,y,z forces =   -1.3121E+04   -2.3261E+04   -2.4732E+05  setid=       0
 node=    28 local x,y,z forces =   -2.4355E+04   -2.0455E+04   -2.4037E+05  setid=       0
 node=    33 local x,y,z forces =   -3.1312E+04   -1.8005E+04   -2.3611E+05  setid=       0
 node=    38 local x,y,z forces =   -3.4791E+04   -1.5065E+04   -2.3405E+05  setid=       0
 node=    43 local x,y,z forces =   -3.7054E+04   -1.2221E+04   -2.3280E+05  setid=       0
 node=    48 local x,y,z forces =   -3.8208E+04   -9.2033E+03   -2.3225E+05  setid=       0
 node=    53 local x,y,z forces =   -3.8972E+04   -6.1823E+03   -2.3192E+05  setid=       0
 node=    58 local x,y,z forces =   -3.9297E+04   -3.0955E+03   -2.3182E+05  setid=       0
 node=    63 local x,y,z forces =   -3.9443E+04   -2.5466E-10   -2.3177E+05  setid=       0
 node=    68 local x,y,z forces =   -3.9297E+04    3.0955E+03   -2.3182E+05  setid=       0
 node=    73 local x,y,z forces =   -3.8972E+04    6.1823E+03   -2.3192E+05  setid=       0
 node=    78 local x,y,z forces =   -3.8208E+04    9.2033E+03   -2.3225E+05  setid=       0
 node=    83 local x,y,z forces =   -3.7054E+04    1.2221E+04   -2.3280E+05  setid=       0
 node=    88 local x,y,z forces =   -3.4791E+04    1.5065E+04   -2.3405E+05  setid=       0
 node=    93 local x,y,z forces =   -3.1312E+04    1.8005E+04   -2.3611E+05  setid=       0
 node=    98 local x,y,z forces =   -2.4355E+04    2.0455E+04   -2.4037E+05  setid=       0
 node=   103 local x,y,z forces =   -1.3121E+04    2.3261E+04   -2.4732E+05  setid=       0
 node=   108 local x,y,z forces =    1.0715E+04    2.4741E+04   -2.6170E+05  setid=       0
 node=   113 local x,y,z forces =    5.1592E+04    2.9056E+04   -2.8530E+05  setid=       0
 node=   118 local x,y,z forces =    1.1837E+05    3.6698E+04   -3.2546E+05  setid=       0
 node=   123 local x,y,z forces =    9.6074E+04    3.8247E+04   -1.8721E+05  setid=       0
 node=  6253 local x,y,z forces =    9.6071E+04   -3.8245E+04    0.0000E+00  setid=       0
 node=  6258 local x,y,z forces =    1.1836E+05   -3.6698E+04    0.0000E+00  setid=       0
 node=  6263 local x,y,z forces =    5.1586E+04   -2.9056E+04    0.0000E+00  setid=       0
 node=  6268 local x,y,z forces =    1.0709E+04   -2.4741E+04    0.0000E+00  setid=       0
 node=  6273 local x,y,z forces =   -1.3127E+04   -2.3261E+04    0.0000E+00  setid=       0
 node=  6278 local x,y,z forces =   -2.4361E+04   -2.0455E+04    0.0000E+00  setid=       0
 node=  6283 local x,y,z forces =   -3.1319E+04   -1.8005E+04    0.0000E+00  setid=       0
 node=  6288 local x,y,z forces =   -3.4797E+04   -1.5065E+04    0.0000E+00  setid=       0
 node=  6293 local x,y,z forces =   -3.7060E+04   -1.2221E+04    0.0000E+00  setid=       0
 node=  6298 local x,y,z forces =   -3.8214E+04   -9.2033E+03    0.0000E+00  setid=       0
 node=  6303 local x,y,z forces =   -3.8978E+04   -6.1823E+03    0.0000E+00  setid=       0
 node=  6308 local x,y,z forces =   -3.9303E+04   -3.0955E+03    0.0000E+00  setid=       0
 node=  6313 local x,y,z forces =   -3.9449E+04   -3.1941E-09    0.0000E+00  setid=       0
 node=  6318 local x,y,z forces =   -3.9303E+04    3.0955E+03    0.0000E+00  setid=       0
 node=  6323 local x,y,z forces =   -3.8978E+04    6.1823E+03    0.0000E+00  setid=       0
 node=  6328 local x,y,z forces =   -3.8214E+04    9.2033E+03    0.0000E+00  setid=       0
 node=  6333 local x,y,z forces =   -3.7060E+04    1.2221E+04    0.0000E+00  setid=       0
 node=  6338 local x,y,z forces =   -3.4797E+04    1.5065E+04    0.0000E+00  setid=       0
 node=  6343 local x,y,z forces =   -3.1319E+04    1.8005E+04    0.0000E+00  setid=       0
 node=  6348 local x,y,z forces =   -2.4361E+04    2.0455E+04    0.0000E+00  setid=       0
 node=  6353 local x,y,z forces =   -1.3127E+04    2.3261E+04    0.0000E+00  setid=       0
 node=  6358 local x,y,z forces =    1.0709E+04    2.4741E+04    0.0000E+00  setid=       0
 node=  6363 local x,y,z forces =    5.1586E+04    2.9056E+04    0.0000E+00  setid=       0
 node=  6368 local x,y,z forces =    1.1836E+05    3.6698E+04    0.0000E+00  setid=       0
 node=  6373 local x,y,z forces =    9.6071E+04    3.8245E+04    0.0000E+00  setid=       0
             force resultants   =   -4.8549E+02    2.3065E-09   -6.1244E+06
