 400x600                                                                 
                         ls-dyna smp.123264 d           date 01/12/2018

{BEGIN LEGEND}
 Entity #        Title
        0     bottom                                                                
        0     middle                                                                
{END LEGEND}

 single point constraint forces

 output at time =   0.00000E+00
 node=     1 local x,y,z forces =    0.0000E+00    0.0000E+00    0.0000E+00  setid=       0
 node=     1 local x,y,z moments=    0.0000E+00    0.0000E+00    0.0000E+00  setid=       0
 node=     2 local x,y,z forces =    0.0000E+00    0.0000E+00    0.0000E+00  setid=       0
 node=     2 local x,y,z moments=    0.0000E+00    0.0000E+00    0.0000E+00  setid=       0
 node=     3 local x,y,z forces =    0.0000E+00    0.0000E+00    0.0000E+00  setid=       0
 node=     3 local x,y,z moments=    0.0000E+00    0.0000E+00    0.0000E+00  setid=       0
 node=     4 local x,y,z forces =    0.0000E+00    0.0000E+00    0.0000E+00  setid=       0
 node=     4 local x,y,z moments=    0.0000E+00    0.0000E+00    0.0000E+00  setid=       0
 node=     5 local x,y,z forces =    0.0000E+00    0.0000E+00    0.0000E+00  setid=       0
 node=     5 local x,y,z moments=    0.0000E+00    0.0000E+00    0.0000E+00  setid=       0
 node=     6 local x,y,z forces =    0.0000E+00    0.0000E+00    0.0000E+00  setid=       0
 node=     6 local x,y,z moments=    0.0000E+00    0.0000E+00    0.0000E+00  setid=       0
 node=     7 local x,y,z forces =    0.0000E+00    0.0000E+00    0.0000E+00  setid=       0
 node=     7 local x,y,z moments=    0.0000E+00    0.0000E+00    0.0000E+00  setid=       0
 node=     8 local x,y,z forces =    0.0000E+00    0.0000E+00    0.0000E+00  setid=       0
 node=     8 local x,y,z moments=    0.0000E+00    0.0000E+00    0.0000E+00  setid=       0
 node=     9 local x,y,z forces =    0.0000E+00    0.0000E+00    0.0000E+00  setid=       0
 node=     9 local x,y,z moments=    0.0000E+00    0.0000E+00    0.0000E+00  setid=       0
 node=    10 local x,y,z forces =    0.0000E+00    0.0000E+00    0.0000E+00  setid=       0
 node=    10 local x,y,z moments=    0.0000E+00    0.0000E+00    0.0000E+00  setid=       0
 node=    11 local x,y,z forces =    0.0000E+00    0.0000E+00    0.0000E+00  setid=       0
 node=    11 local x,y,z moments=    0.0000E+00    0.0000E+00    0.0000E+00  setid=       0
 node=    12 local x,y,z forces =    0.0000E+00    0.0000E+00    0.0000E+00  setid=       0
 node=    12 local x,y,z moments=    0.0000E+00    0.0000E+00    0.0000E+00  setid=       0
 node=    13 local x,y,z forces =    0.0000E+00    0.0000E+00    0.0000E+00  setid=       0
 node=    13 local x,y,z moments=    0.0000E+00    0.0000E+00    0.0000E+00  setid=       0
 node=    14 local x,y,z forces =    0.0000E+00    0.0000E+00    0.0000E+00  setid=       0
 node=    14 local x,y,z moments=    0.0000E+00    0.0000E+00    0.0000E+00  setid=       0
 node=    15 local x,y,z forces =    0.0000E+00    0.0000E+00    0.0000E+00  setid=       0
 node=    15 local x,y,z moments=    0.0000E+00    0.0000E+00    0.0000E+00  setid=       0
 node=    16 local x,y,z forces =    0.0000E+00    0.0000E+00    0.0000E+00  setid=       0
 node=    16 local x,y,z moments=    0.0000E+00    0.0000E+00    0.0000E+00  setid=       0
 node=    17 local x,y,z forces =    0.0000E+00    0.0000E+00    0.0000E+00  setid=       0
 node=    17 local x,y,z moments=    0.0000E+00    0.0000E+00    0.0000E+00  setid=       0
 node=    18 local x,y,z forces =    0.0000E+00    0.0000E+00    0.0000E+00  setid=       0
 node=    18 local x,y,z moments=    0.0000E+00    0.0000E+00    0.0000E+00  setid=       0
 node=    19 local x,y,z forces =    0.0000E+00    0.0000E+00    0.0000E+00  setid=       0
 node=    19 local x,y,z moments=    0.0000E+00    0.0000E+00    0.0000E+00  setid=       0
 node=    20 local x,y,z forces =    0.0000E+00    0.0000E+00    0.0000E+00  setid=       0
 node=    20 local x,y,z moments=    0.0000E+00    0.0000E+00    0.0000E+00  setid=       0
 node=    21 local x,y,z forces =    0.0000E+00    0.0000E+00    0.0000E+00  setid=       0
 node=    21 local x,y,z moments=    0.0000E+00    0.0000E+00    0.0000E+00  setid=       0
 node=    22 local x,y,z forces =    0.0000E+00    0.0000E+00    0.0000E+00  setid=       0
 node=    22 local x,y,z moments=    0.0000E+00    0.0000E+00    0.0000E+00  setid=       0
 node=    23 local x,y,z forces =    0.0000E+00    0.0000E+00    0.0000E+00  setid=       0
 node=    23 local x,y,z moments=    0.0000E+00    0.0000E+00    0.0000E+00  setid=       0
 node=    24 local x,y,z forces =    0.0000E+00    0.0000E+00    0.0000E+00  setid=       0
 node=    24 local x,y,z moments=    0.0000E+00    0.0000E+00    0.0000E+00  setid=       0
 node=    25 local x,y,z forces =    0.0000E+00    0.0000E+00    0.0000E+00  setid=       0
 node=    25 local x,y,z moments=    0.0000E+00    0.0000E+00    0.0000E+00  setid=       0
 node=    26 local x,y,z forces =    0.0000E+00    0.0000E+00    0.0000E+00  setid=       0
 node=    26 local x,y,z moments=    0.0000E+00    0.0000E+00    0.0000E+00  setid=       0
 node=    27 local x,y,z forces =    0.0000E+00    0.0000E+00    0.0000E+00  setid=       0
 node=    27 local x,y,z moments=    0.0000E+00    0.0000E+00    0.0000E+00  setid=       0
 node=    28 local x,y,z forces =    0.0000E+00    0.0000E+00    0.0000E+00  setid=       0
 node=    28 local x,y,z moments=    0.0000E+00    0.0000E+00    0.0000E+00  setid=       0
 node=    29 local x,y,z forces =    0.0000E+00    0.0000E+00    0.0000E+00  setid=       0
 node=    29 local x,y,z moments=    0.0000E+00    0.0000E+00    0.0000E+00  setid=       0
 node=    30 local x,y,z forces =    0.0000E+00    0.0000E+00    0.0000E+00  setid=       0
 node=    30 local x,y,z moments=    0.0000E+00    0.0000E+00    0.0000E+00  setid=       0
 node=    31 local x,y,z forces =    0.0000E+00    0.0000E+00    0.0000E+00  setid=       0
 node=    31 local x,y,z moments=    0.0000E+00    0.0000E+00    0.0000E+00  setid=       0
 node=    32 local x,y,z forces =    0.0000E+00    0.0000E+00    0.0000E+00  setid=       0
 node=    32 local x,y,z moments=    0.0000E+00    0.0000E+00    0.0000E+00  setid=       0
 node=    33 local x,y,z forces =    0.0000E+00    0.0000E+00    0.0000E+00  setid=       0
 node=    33 local x,y,z moments=    0.0000E+00    0.0000E+00    0.0000E+00  setid=       0
 node=    34 local x,y,z forces =    0.0000E+00    0.0000E+00    0.0000E+00  setid=       0
 node=    34 local x,y,z moments=    0.0000E+00    0.0000E+00    0.0000E+00  setid=       0
 node=    35 local x,y,z forces =    0.0000E+00    0.0000E+00    0.0000E+00  setid=       0
 node=    35 local x,y,z moments=    0.0000E+00    0.0000E+00    0.0000E+00  setid=       0
 node=    36 local x,y,z forces =    0.0000E+00    0.0000E+00    0.0000E+00  setid=       0
 node=    36 local x,y,z moments=    0.0000E+00    0.0000E+00    0.0000E+00  setid=       0
 node=    37 local x,y,z forces =    0.0000E+00    0.0000E+00    0.0000E+00  setid=       0
 node=    37 local x,y,z moments=    0.0000E+00    0.0000E+00    0.0000E+00  setid=       0
 node=    38 local x,y,z forces =    0.0000E+00    0.0000E+00    0.0000E+00  setid=       0
 node=    38 local x,y,z moments=    0.0000E+00    0.0000E+00    0.0000E+00  setid=       0
 node=    39 local x,y,z forces =    0.0000E+00    0.0000E+00    0.0000E+00  setid=       0
 node=    39 local x,y,z moments=    0.0000E+00    0.0000E+00    0.0000E+00  setid=       0
 node=    40 local x,y,z forces =    0.0000E+00    0.0000E+00    0.0000E+00  setid=       0
 node=    40 local x,y,z moments=    0.0000E+00    0.0000E+00    0.0000E+00  setid=       0
 node=    41 local x,y,z forces =    0.0000E+00    0.0000E+00    0.0000E+00  setid=       0
 node=    41 local x,y,z moments=    0.0000E+00    0.0000E+00    0.0000E+00  setid=       0
 node=    42 local x,y,z forces =    0.0000E+00    0.0000E+00    0.0000E+00  setid=       0
 node=    42 local x,y,z moments=    0.0000E+00    0.0000E+00    0.0000E+00  setid=       0
 node=    43 local x,y,z forces =    0.0000E+00    0.0000E+00    0.0000E+00  setid=       0
 node=    43 local x,y,z moments=    0.0000E+00    0.0000E+00    0.0000E+00  setid=       0
 node=    44 local x,y,z forces =    0.0000E+00    0.0000E+00    0.0000E+00  setid=       0
 node=    44 local x,y,z moments=    0.0000E+00    0.0000E+00    0.0000E+00  setid=       0
 node=    45 local x,y,z forces =    0.0000E+00    0.0000E+00    0.0000E+00  setid=       0
 node=    45 local x,y,z moments=    0.0000E+00    0.0000E+00    0.0000E+00  setid=       0
 node=    46 local x,y,z forces =    0.0000E+00    0.0000E+00    0.0000E+00  setid=       0
 node=    46 local x,y,z moments=    0.0000E+00    0.0000E+00    0.0000E+00  setid=       0
 node=    47 local x,y,z forces =    0.0000E+00    0.0000E+00    0.0000E+00  setid=       0
 node=    47 local x,y,z moments=    0.0000E+00    0.0000E+00    0.0000E+00  setid=       0
 node=    48 local x,y,z forces =    0.0000E+00    0.0000E+00    0.0000E+00  setid=       0
 node=    48 local x,y,z moments=    0.0000E+00    0.0000E+00    0.0000E+00  setid=       0
 node=    49 local x,y,z forces =    0.0000E+00    0.0000E+00    0.0000E+00  setid=       0
 node=    49 local x,y,z moments=    0.0000E+00    0.0000E+00    0.0000E+00  setid=       0
 node=    50 local x,y,z forces =    0.0000E+00    0.0000E+00    0.0000E+00  setid=       0
 node=    50 local x,y,z moments=    0.0000E+00    0.0000E+00    0.0000E+00  setid=       0
 node=    51 local x,y,z forces =    0.0000E+00    0.0000E+00    0.0000E+00  setid=       0
 node=    51 local x,y,z moments=    0.0000E+00    0.0000E+00    0.0000E+00  setid=       0
 node=    52 local x,y,z forces =    0.0000E+00    0.0000E+00    0.0000E+00  setid=       0
 node=    52 local x,y,z moments=    0.0000E+00    0.0000E+00    0.0000E+00  setid=       0
 node=    53 local x,y,z forces =    0.0000E+00    0.0000E+00    0.0000E+00  setid=       0
 node=    53 local x,y,z moments=    0.0000E+00    0.0000E+00    0.0000E+00  setid=       0
 node=    54 local x,y,z forces =    0.0000E+00    0.0000E+00    0.0000E+00  setid=       0
 node=    54 local x,y,z moments=    0.0000E+00    0.0000E+00    0.0000E+00  setid=       0
 node=    55 local x,y,z forces =    0.0000E+00    0.0000E+00    0.0000E+00  setid=       0
 node=    55 local x,y,z moments=    0.0000E+00    0.0000E+00    0.0000E+00  setid=       0
 node=    56 local x,y,z forces =    0.0000E+00    0.0000E+00    0.0000E+00  setid=       0
 node=    56 local x,y,z moments=    0.0000E+00    0.0000E+00    0.0000E+00  setid=       0
 node=    57 local x,y,z forces =    0.0000E+00    0.0000E+00    0.0000E+00  setid=       0
 node=    57 local x,y,z moments=    0.0000E+00    0.0000E+00    0.0000E+00  setid=       0
 node=    58 local x,y,z forces =    0.0000E+00    0.0000E+00    0.0000E+00  setid=       0
 node=    58 local x,y,z moments=    0.0000E+00    0.0000E+00    0.0000E+00  setid=       0
 node=    59 local x,y,z forces =    0.0000E+00    0.0000E+00    0.0000E+00  setid=       0
 node=    59 local x,y,z moments=    0.0000E+00    0.0000E+00    0.0000E+00  setid=       0
 node=    60 local x,y,z forces =    0.0000E+00    0.0000E+00    0.0000E+00  setid=       0
 node=    60 local x,y,z moments=    0.0000E+00    0.0000E+00    0.0000E+00  setid=       0
 node=    61 local x,y,z forces =    0.0000E+00    0.0000E+00    0.0000E+00  setid=       0
 node=    61 local x,y,z moments=    0.0000E+00    0.0000E+00    0.0000E+00  setid=       0
 node=    62 local x,y,z forces =    0.0000E+00    0.0000E+00    0.0000E+00  setid=       0
 node=    62 local x,y,z moments=    0.0000E+00    0.0000E+00    0.0000E+00  setid=       0
 node=    63 local x,y,z forces =    0.0000E+00    0.0000E+00    0.0000E+00  setid=       0
 node=    63 local x,y,z moments=    0.0000E+00    0.0000E+00    0.0000E+00  setid=       0
 node=    64 local x,y,z forces =    0.0000E+00    0.0000E+00    0.0000E+00  setid=       0
 node=    64 local x,y,z moments=    0.0000E+00    0.0000E+00    0.0000E+00  setid=       0
 node=    65 local x,y,z forces =    0.0000E+00    0.0000E+00    0.0000E+00  setid=       0
 node=    65 local x,y,z moments=    0.0000E+00    0.0000E+00    0.0000E+00  setid=       0
 node=    66 local x,y,z forces =    0.0000E+00    0.0000E+00    0.0000E+00  setid=       0
 node=    66 local x,y,z moments=    0.0000E+00    0.0000E+00    0.0000E+00  setid=       0
 node=    67 local x,y,z forces =    0.0000E+00    0.0000E+00    0.0000E+00  setid=       0
 node=    67 local x,y,z moments=    0.0000E+00    0.0000E+00    0.0000E+00  setid=       0
 node=    68 local x,y,z forces =    0.0000E+00    0.0000E+00    0.0000E+00  setid=       0
 node=    68 local x,y,z moments=    0.0000E+00    0.0000E+00    0.0000E+00  setid=       0
 node=    69 local x,y,z forces =    0.0000E+00    0.0000E+00    0.0000E+00  setid=       0
 node=    69 local x,y,z moments=    0.0000E+00    0.0000E+00    0.0000E+00  setid=       0
 node=    70 local x,y,z forces =    0.0000E+00    0.0000E+00    0.0000E+00  setid=       0
 node=    70 local x,y,z moments=    0.0000E+00    0.0000E+00    0.0000E+00  setid=       0
 node=    71 local x,y,z forces =    0.0000E+00    0.0000E+00    0.0000E+00  setid=       0
 node=    71 local x,y,z moments=    0.0000E+00    0.0000E+00    0.0000E+00  setid=       0
 node=    72 local x,y,z forces =    0.0000E+00    0.0000E+00    0.0000E+00  setid=       0
 node=    72 local x,y,z moments=    0.0000E+00    0.0000E+00    0.0000E+00  setid=       0
 node=    73 local x,y,z forces =    0.0000E+00    0.0000E+00    0.0000E+00  setid=       0
 node=    73 local x,y,z moments=    0.0000E+00    0.0000E+00    0.0000E+00  setid=       0
 node=    74 local x,y,z forces =    0.0000E+00    0.0000E+00    0.0000E+00  setid=       0
 node=    74 local x,y,z moments=    0.0000E+00    0.0000E+00    0.0000E+00  setid=       0
 node=    75 local x,y,z forces =    0.0000E+00    0.0000E+00    0.0000E+00  setid=       0
 node=    75 local x,y,z moments=    0.0000E+00    0.0000E+00    0.0000E+00  setid=       0
 node=    76 local x,y,z forces =    0.0000E+00    0.0000E+00    0.0000E+00  setid=       0
 node=    76 local x,y,z moments=    0.0000E+00    0.0000E+00    0.0000E+00  setid=       0
 node=    77 local x,y,z forces =    0.0000E+00    0.0000E+00    0.0000E+00  setid=       0
 node=    77 local x,y,z moments=    0.0000E+00    0.0000E+00    0.0000E+00  setid=       0
 node=    78 local x,y,z forces =    0.0000E+00    0.0000E+00    0.0000E+00  setid=       0
 node=    78 local x,y,z moments=    0.0000E+00    0.0000E+00    0.0000E+00  setid=       0
 node=    79 local x,y,z forces =    0.0000E+00    0.0000E+00    0.0000E+00  setid=       0
 node=    79 local x,y,z moments=    0.0000E+00    0.0000E+00    0.0000E+00  setid=       0
 node=    80 local x,y,z forces =    0.0000E+00    0.0000E+00    0.0000E+00  setid=       0
 node=    80 local x,y,z moments=    0.0000E+00    0.0000E+00    0.0000E+00  setid=       0
 node=    81 local x,y,z forces =    0.0000E+00    0.0000E+00    0.0000E+00  setid=       0
 node=    81 local x,y,z moments=    0.0000E+00    0.0000E+00    0.0000E+00  setid=       0
 node=    82 local x,y,z forces =    0.0000E+00    0.0000E+00    0.0000E+00  setid=       0
 node=    82 local x,y,z moments=    0.0000E+00    0.0000E+00    0.0000E+00  setid=       0
 node=    83 local x,y,z forces =    0.0000E+00    0.0000E+00    0.0000E+00  setid=       0
 node=    83 local x,y,z moments=    0.0000E+00    0.0000E+00    0.0000E+00  setid=       0
 node=    84 local x,y,z forces =    0.0000E+00    0.0000E+00    0.0000E+00  setid=       0
 node=    84 local x,y,z moments=    0.0000E+00    0.0000E+00    0.0000E+00  setid=       0
 node=    85 local x,y,z forces =    0.0000E+00    0.0000E+00    0.0000E+00  setid=       0
 node=    85 local x,y,z moments=    0.0000E+00    0.0000E+00    0.0000E+00  setid=       0
 node=    86 local x,y,z forces =    0.0000E+00    0.0000E+00    0.0000E+00  setid=       0
 node=    86 local x,y,z moments=    0.0000E+00    0.0000E+00    0.0000E+00  setid=       0
 node=    87 local x,y,z forces =    0.0000E+00    0.0000E+00    0.0000E+00  setid=       0
 node=    87 local x,y,z moments=    0.0000E+00    0.0000E+00    0.0000E+00  setid=       0
 node=    88 local x,y,z forces =    0.0000E+00    0.0000E+00    0.0000E+00  setid=       0
 node=    88 local x,y,z moments=    0.0000E+00    0.0000E+00    0.0000E+00  setid=       0
 node=    89 local x,y,z forces =    0.0000E+00    0.0000E+00    0.0000E+00  setid=       0
 node=    89 local x,y,z moments=    0.0000E+00    0.0000E+00    0.0000E+00  setid=       0
 node=    90 local x,y,z forces =    0.0000E+00    0.0000E+00    0.0000E+00  setid=       0
 node=    90 local x,y,z moments=    0.0000E+00    0.0000E+00    0.0000E+00  setid=       0
 node=    91 local x,y,z forces =    0.0000E+00    0.0000E+00    0.0000E+00  setid=       0
 node=    91 local x,y,z moments=    0.0000E+00    0.0000E+00    0.0000E+00  setid=       0
 node=    92 local x,y,z forces =    0.0000E+00    0.0000E+00    0.0000E+00  setid=       0
 node=    92 local x,y,z moments=    0.0000E+00    0.0000E+00    0.0000E+00  setid=       0
 node=    93 local x,y,z forces =    0.0000E+00    0.0000E+00    0.0000E+00  setid=       0
 node=    93 local x,y,z moments=    0.0000E+00    0.0000E+00    0.0000E+00  setid=       0
 node=    94 local x,y,z forces =    0.0000E+00    0.0000E+00    0.0000E+00  setid=       0
 node=    94 local x,y,z moments=    0.0000E+00    0.0000E+00    0.0000E+00  setid=       0
 node=    95 local x,y,z forces =    0.0000E+00    0.0000E+00    0.0000E+00  setid=       0
 node=    95 local x,y,z moments=    0.0000E+00    0.0000E+00    0.0000E+00  setid=       0
 node=    96 local x,y,z forces =    0.0000E+00    0.0000E+00    0.0000E+00  setid=       0
 node=    96 local x,y,z moments=    0.0000E+00    0.0000E+00    0.0000E+00  setid=       0
 node=    97 local x,y,z forces =    0.0000E+00    0.0000E+00    0.0000E+00  setid=       0
 node=    97 local x,y,z moments=    0.0000E+00    0.0000E+00    0.0000E+00  setid=       0
 node=    98 local x,y,z forces =    0.0000E+00    0.0000E+00    0.0000E+00  setid=       0
 node=    98 local x,y,z moments=    0.0000E+00    0.0000E+00    0.0000E+00  setid=       0
 node=    99 local x,y,z forces =    0.0000E+00    0.0000E+00    0.0000E+00  setid=       0
 node=    99 local x,y,z moments=    0.0000E+00    0.0000E+00    0.0000E+00  setid=       0
 node=   100 local x,y,z forces =    0.0000E+00    0.0000E+00    0.0000E+00  setid=       0
 node=   100 local x,y,z moments=    0.0000E+00    0.0000E+00    0.0000E+00  setid=       0
 node=   101 local x,y,z forces =    0.0000E+00    0.0000E+00    0.0000E+00  setid=       0
 node=   101 local x,y,z moments=    0.0000E+00    0.0000E+00    0.0000E+00  setid=       0
 node=   102 local x,y,z forces =    0.0000E+00    0.0000E+00    0.0000E+00  setid=       0
 node=   102 local x,y,z moments=    0.0000E+00    0.0000E+00    0.0000E+00  setid=       0
 node=   103 local x,y,z forces =    0.0000E+00    0.0000E+00    0.0000E+00  setid=       0
 node=   103 local x,y,z moments=    0.0000E+00    0.0000E+00    0.0000E+00  setid=       0
 node=   104 local x,y,z forces =    0.0000E+00    0.0000E+00    0.0000E+00  setid=       0
 node=   104 local x,y,z moments=    0.0000E+00    0.0000E+00    0.0000E+00  setid=       0
 node=   105 local x,y,z forces =    0.0000E+00    0.0000E+00    0.0000E+00  setid=       0
 node=   105 local x,y,z moments=    0.0000E+00    0.0000E+00    0.0000E+00  setid=       0
 node=   106 local x,y,z forces =    0.0000E+00    0.0000E+00    0.0000E+00  setid=       0
 node=   106 local x,y,z moments=    0.0000E+00    0.0000E+00    0.0000E+00  setid=       0
 node=   107 local x,y,z forces =    0.0000E+00    0.0000E+00    0.0000E+00  setid=       0
 node=   107 local x,y,z moments=    0.0000E+00    0.0000E+00    0.0000E+00  setid=       0
 node=   108 local x,y,z forces =    0.0000E+00    0.0000E+00    0.0000E+00  setid=       0
 node=   108 local x,y,z moments=    0.0000E+00    0.0000E+00    0.0000E+00  setid=       0
 node=   109 local x,y,z forces =    0.0000E+00    0.0000E+00    0.0000E+00  setid=       0
 node=   109 local x,y,z moments=    0.0000E+00    0.0000E+00    0.0000E+00  setid=       0
 node=   110 local x,y,z forces =    0.0000E+00    0.0000E+00    0.0000E+00  setid=       0
 node=   110 local x,y,z moments=    0.0000E+00    0.0000E+00    0.0000E+00  setid=       0
 node=   111 local x,y,z forces =    0.0000E+00    0.0000E+00    0.0000E+00  setid=       0
 node=   111 local x,y,z moments=    0.0000E+00    0.0000E+00    0.0000E+00  setid=       0
 node=   112 local x,y,z forces =    0.0000E+00    0.0000E+00    0.0000E+00  setid=       0
 node=   112 local x,y,z moments=    0.0000E+00    0.0000E+00    0.0000E+00  setid=       0
 node=   113 local x,y,z forces =    0.0000E+00    0.0000E+00    0.0000E+00  setid=       0
 node=   113 local x,y,z moments=    0.0000E+00    0.0000E+00    0.0000E+00  setid=       0
 node=   114 local x,y,z forces =    0.0000E+00    0.0000E+00    0.0000E+00  setid=       0
 node=   114 local x,y,z moments=    0.0000E+00    0.0000E+00    0.0000E+00  setid=       0
 node=   115 local x,y,z forces =    0.0000E+00    0.0000E+00    0.0000E+00  setid=       0
 node=   115 local x,y,z moments=    0.0000E+00    0.0000E+00    0.0000E+00  setid=       0
 node=   116 local x,y,z forces =    0.0000E+00    0.0000E+00    0.0000E+00  setid=       0
 node=   116 local x,y,z moments=    0.0000E+00    0.0000E+00    0.0000E+00  setid=       0
 node=   117 local x,y,z forces =    0.0000E+00    0.0000E+00    0.0000E+00  setid=       0
 node=   117 local x,y,z moments=    0.0000E+00    0.0000E+00    0.0000E+00  setid=       0
 node=  2926 local x,y,z forces =    0.0000E+00    0.0000E+00    0.0000E+00  setid=       0
 node=  2934 local x,y,z forces =    0.0000E+00    0.0000E+00    0.0000E+00  setid=       0
 node=  2935 local x,y,z forces =    0.0000E+00    0.0000E+00    0.0000E+00  setid=       0
 node=  2943 local x,y,z forces =    0.0000E+00    0.0000E+00    0.0000E+00  setid=       0
 node=  2944 local x,y,z forces =    0.0000E+00    0.0000E+00    0.0000E+00  setid=       0
 node=  2952 local x,y,z forces =    0.0000E+00    0.0000E+00    0.0000E+00  setid=       0
 node=  2953 local x,y,z forces =    0.0000E+00    0.0000E+00    0.0000E+00  setid=       0
 node=  2961 local x,y,z forces =    0.0000E+00    0.0000E+00    0.0000E+00  setid=       0
 node=  2962 local x,y,z forces =    0.0000E+00    0.0000E+00    0.0000E+00  setid=       0
 node=  2970 local x,y,z forces =    0.0000E+00    0.0000E+00    0.0000E+00  setid=       0
 node=  2971 local x,y,z forces =    0.0000E+00    0.0000E+00    0.0000E+00  setid=       0
 node=  2979 local x,y,z forces =    0.0000E+00    0.0000E+00    0.0000E+00  setid=       0
 node=  2980 local x,y,z forces =    0.0000E+00    0.0000E+00    0.0000E+00  setid=       0
 node=  2988 local x,y,z forces =    0.0000E+00    0.0000E+00    0.0000E+00  setid=       0
 node=  2989 local x,y,z forces =    0.0000E+00    0.0000E+00    0.0000E+00  setid=       0
 node=  2997 local x,y,z forces =    0.0000E+00    0.0000E+00    0.0000E+00  setid=       0
 node=  2998 local x,y,z forces =    0.0000E+00    0.0000E+00    0.0000E+00  setid=       0
 node=  3006 local x,y,z forces =    0.0000E+00    0.0000E+00    0.0000E+00  setid=       0
 node=  3007 local x,y,z forces =    0.0000E+00    0.0000E+00    0.0000E+00  setid=       0
 node=  3015 local x,y,z forces =    0.0000E+00    0.0000E+00    0.0000E+00  setid=       0
 node=  3016 local x,y,z forces =    0.0000E+00    0.0000E+00    0.0000E+00  setid=       0
 node=  3024 local x,y,z forces =    0.0000E+00    0.0000E+00    0.0000E+00  setid=       0
 node=  3025 local x,y,z forces =    0.0000E+00    0.0000E+00    0.0000E+00  setid=       0
 node=  3033 local x,y,z forces =    0.0000E+00    0.0000E+00    0.0000E+00  setid=       0
 node=  3034 local x,y,z forces =    0.0000E+00    0.0000E+00    0.0000E+00  setid=       0
 node=  3042 local x,y,z forces =    0.0000E+00    0.0000E+00    0.0000E+00  setid=       0
             force resultants   =    0.0000E+00    0.0000E+00    0.0000E+00
 output at time =   2.00000E-04
 node=     1 local x,y,z forces =   -6.3710E+03   -6.5602E+03   -1.3407E+04  setid=       0
 node=     1 local x,y,z moments=    0.0000E+00    0.0000E+00    0.0000E+00  setid=       0
 node=     2 local x,y,z forces =   -1.5743E+03   -1.2454E+04   -2.2789E+04  setid=       0
 node=     2 local x,y,z moments=    0.0000E+00    0.0000E+00    0.0000E+00  setid=       0
 node=     3 local x,y,z forces =   -1.6275E+03   -1.1895E+04   -2.0929E+04  setid=       0
 node=     3 local x,y,z moments=    0.0000E+00    0.0000E+00    0.0000E+00  setid=       0
 node=     4 local x,y,z forces =   -6.5453E+02   -1.1898E+04   -2.1353E+04  setid=       0
 node=     4 local x,y,z moments=    0.0000E+00    0.0000E+00    0.0000E+00  setid=       0
 node=     5 local x,y,z forces =   -9.0949E-12   -1.1864E+04   -2.1040E+04  setid=       0
 node=     5 local x,y,z moments=    0.0000E+00    0.0000E+00    0.0000E+00  setid=       0
 node=     6 local x,y,z forces =    6.5453E+02   -1.1898E+04   -2.1353E+04  setid=       0
 node=     6 local x,y,z moments=    0.0000E+00    0.0000E+00    0.0000E+00  setid=       0
 node=     7 local x,y,z forces =    1.6275E+03   -1.1895E+04   -2.0929E+04  setid=       0
 node=     7 local x,y,z moments=    0.0000E+00    0.0000E+00    0.0000E+00  setid=       0
 node=     8 local x,y,z forces =    1.5743E+03   -1.2454E+04   -2.2789E+04  setid=       0
 node=     8 local x,y,z moments=    0.0000E+00    0.0000E+00    0.0000E+00  setid=       0
 node=     9 local x,y,z forces =    6.3710E+03   -6.5602E+03   -1.3407E+04  setid=       0
 node=     9 local x,y,z moments=    0.0000E+00    0.0000E+00    0.0000E+00  setid=       0
 node=    10 local x,y,z forces =   -1.1843E+04   -1.8677E+03   -2.2000E+04  setid=       0
 node=    10 local x,y,z moments=    0.0000E+00    0.0000E+00    0.0000E+00  setid=       0
 node=    11 local x,y,z forces =   -3.1280E+03   -3.7233E+03   -3.5887E+04  setid=       0
 node=    11 local x,y,z moments=    0.0000E+00    0.0000E+00    0.0000E+00  setid=       0
 node=    12 local x,y,z forces =   -3.2433E+03   -3.7767E+03   -3.2049E+04  setid=       0
 node=    12 local x,y,z moments=    0.0000E+00    0.0000E+00    0.0000E+00  setid=       0
 node=    13 local x,y,z forces =   -1.2974E+03   -3.8390E+03   -3.2833E+04  setid=       0
 node=    13 local x,y,z moments=    0.0000E+00    0.0000E+00    0.0000E+00  setid=       0
 node=    14 local x,y,z forces =   -1.3642E-11   -3.8589E+03   -3.2175E+04  setid=       0
 node=    14 local x,y,z moments=    0.0000E+00    0.0000E+00    0.0000E+00  setid=       0
 node=    15 local x,y,z forces =    1.2974E+03   -3.8390E+03   -3.2833E+04  setid=       0
 node=    15 local x,y,z moments=    0.0000E+00    0.0000E+00    0.0000E+00  setid=       0
 node=    16 local x,y,z forces =    3.2433E+03   -3.7767E+03   -3.2049E+04  setid=       0
 node=    16 local x,y,z moments=    0.0000E+00    0.0000E+00    0.0000E+00  setid=       0
 node=    17 local x,y,z forces =    3.1280E+03   -3.7233E+03   -3.5887E+04  setid=       0
 node=    17 local x,y,z moments=    0.0000E+00    0.0000E+00    0.0000E+00  setid=       0
 node=    18 local x,y,z forces =    1.1843E+04   -1.8677E+03   -2.2000E+04  setid=       0
 node=    18 local x,y,z moments=    0.0000E+00    0.0000E+00    0.0000E+00  setid=       0
 node=    19 local x,y,z forces =   -1.1028E+04   -2.2807E+03   -1.9656E+04  setid=       0
 node=    19 local x,y,z moments=    0.0000E+00    0.0000E+00    0.0000E+00  setid=       0
 node=    20 local x,y,z forces =   -3.1677E+03   -4.5324E+03   -3.1130E+04  setid=       0
 node=    20 local x,y,z moments=    0.0000E+00    0.0000E+00    0.0000E+00  setid=       0
 node=    21 local x,y,z forces =   -3.2925E+03   -4.5555E+03   -2.7226E+04  setid=       0
 node=    21 local x,y,z moments=    0.0000E+00    0.0000E+00    0.0000E+00  setid=       0
 node=    22 local x,y,z forces =   -1.3096E+03   -4.6169E+03   -2.8024E+04  setid=       0
 node=    22 local x,y,z moments=    0.0000E+00    0.0000E+00    0.0000E+00  setid=       0
 node=    23 local x,y,z forces =   -1.1823E-11   -4.6403E+03   -2.7357E+04  setid=       0
 node=    23 local x,y,z moments=    0.0000E+00    0.0000E+00    0.0000E+00  setid=       0
 node=    24 local x,y,z forces =    1.3096E+03   -4.6169E+03   -2.8024E+04  setid=       0
 node=    24 local x,y,z moments=    0.0000E+00    0.0000E+00    0.0000E+00  setid=       0
 node=    25 local x,y,z forces =    3.2925E+03   -4.5555E+03   -2.7226E+04  setid=       0
 node=    25 local x,y,z moments=    0.0000E+00    0.0000E+00    0.0000E+00  setid=       0
 node=    26 local x,y,z forces =    3.1677E+03   -4.5324E+03   -3.1130E+04  setid=       0
 node=    26 local x,y,z moments=    0.0000E+00    0.0000E+00    0.0000E+00  setid=       0
 node=    27 local x,y,z forces =    1.1028E+04   -2.2807E+03   -1.9656E+04  setid=       0
 node=    27 local x,y,z moments=    0.0000E+00    0.0000E+00    0.0000E+00  setid=       0
 node=    28 local x,y,z forces =   -1.0967E+04   -1.4427E+03   -1.9853E+04  setid=       0
 node=    28 local x,y,z moments=    0.0000E+00    0.0000E+00    0.0000E+00  setid=       0
 node=    29 local x,y,z forces =   -3.2270E+03   -2.8458E+03   -3.1453E+04  setid=       0
 node=    29 local x,y,z moments=    0.0000E+00    0.0000E+00    0.0000E+00  setid=       0
 node=    30 local x,y,z forces =   -3.3770E+03   -2.8197E+03   -2.7548E+04  setid=       0
 node=    30 local x,y,z moments=    0.0000E+00    0.0000E+00    0.0000E+00  setid=       0
 node=    31 local x,y,z forces =   -1.3496E+03   -2.8387E+03   -2.8411E+04  setid=       0
 node=    31 local x,y,z moments=    0.0000E+00    0.0000E+00    0.0000E+00  setid=       0
 node=    32 local x,y,z forces =    1.5461E-11   -2.8491E+03   -2.7756E+04  setid=       0
 node=    32 local x,y,z moments=    0.0000E+00    0.0000E+00    0.0000E+00  setid=       0
 node=    33 local x,y,z forces =    1.3496E+03   -2.8387E+03   -2.8411E+04  setid=       0
 node=    33 local x,y,z moments=    0.0000E+00    0.0000E+00    0.0000E+00  setid=       0
 node=    34 local x,y,z forces =    3.3770E+03   -2.8197E+03   -2.7548E+04  setid=       0
 node=    34 local x,y,z moments=    0.0000E+00    0.0000E+00    0.0000E+00  setid=       0
 node=    35 local x,y,z forces =    3.2270E+03   -2.8458E+03   -3.1453E+04  setid=       0
 node=    35 local x,y,z moments=    0.0000E+00    0.0000E+00    0.0000E+00  setid=       0
 node=    36 local x,y,z forces =    1.0967E+04   -1.4427E+03   -1.9853E+04  setid=       0
 node=    36 local x,y,z moments=    0.0000E+00    0.0000E+00    0.0000E+00  setid=       0
 node=    37 local x,y,z forces =   -1.0913E+04   -1.0002E+03   -1.9646E+04  setid=       0
 node=    37 local x,y,z moments=    0.0000E+00    0.0000E+00    0.0000E+00  setid=       0
 node=    38 local x,y,z forces =   -3.2677E+03   -1.9713E+03   -3.0952E+04  setid=       0
 node=    38 local x,y,z moments=    0.0000E+00    0.0000E+00    0.0000E+00  setid=       0
 node=    39 local x,y,z forces =   -3.4359E+03   -1.9468E+03   -2.6999E+04  setid=       0
 node=    39 local x,y,z moments=    0.0000E+00    0.0000E+00    0.0000E+00  setid=       0
 node=    40 local x,y,z forces =   -1.3816E+03   -1.9516E+03   -2.7877E+04  setid=       0
 node=    40 local x,y,z moments=    0.0000E+00    0.0000E+00    0.0000E+00  setid=       0
 node=    41 local x,y,z forces =    1.2733E-11   -1.9555E+03   -2.7225E+04  setid=       0
 node=    41 local x,y,z moments=    0.0000E+00    0.0000E+00    0.0000E+00  setid=       0
 node=    42 local x,y,z forces =    1.3816E+03   -1.9516E+03   -2.7877E+04  setid=       0
 node=    42 local x,y,z moments=    0.0000E+00    0.0000E+00    0.0000E+00  setid=       0
 node=    43 local x,y,z forces =    3.4359E+03   -1.9468E+03   -2.6999E+04  setid=       0
 node=    43 local x,y,z moments=    0.0000E+00    0.0000E+00    0.0000E+00  setid=       0
 node=    44 local x,y,z forces =    3.2677E+03   -1.9713E+03   -3.0952E+04  setid=       0
 node=    44 local x,y,z moments=    0.0000E+00    0.0000E+00    0.0000E+00  setid=       0
 node=    45 local x,y,z forces =    1.0913E+04   -1.0002E+03   -1.9646E+04  setid=       0
 node=    45 local x,y,z moments=    0.0000E+00    0.0000E+00    0.0000E+00  setid=       0
 node=    46 local x,y,z forces =   -1.0915E+04   -4.6690E+02   -1.9726E+04  setid=       0
 node=    46 local x,y,z moments=    0.0000E+00    0.0000E+00    0.0000E+00  setid=       0
 node=    47 local x,y,z forces =   -3.2916E+03   -9.1742E+02   -3.1067E+04  setid=       0
 node=    47 local x,y,z moments=    0.0000E+00    0.0000E+00    0.0000E+00  setid=       0
 node=    48 local x,y,z forces =   -3.4701E+03   -8.9959E+02   -2.7095E+04  setid=       0
 node=    48 local x,y,z moments=    0.0000E+00    0.0000E+00    0.0000E+00  setid=       0
 node=    49 local x,y,z forces =   -1.4002E+03   -8.9799E+02   -2.7989E+04  setid=       0
 node=    49 local x,y,z moments=    0.0000E+00    0.0000E+00    0.0000E+00  setid=       0
 node=    50 local x,y,z forces =    4.5475E-12   -8.9830E+02   -2.7339E+04  setid=       0
 node=    50 local x,y,z moments=    0.0000E+00    0.0000E+00    0.0000E+00  setid=       0
 node=    51 local x,y,z forces =    1.4002E+03   -8.9799E+02   -2.7989E+04  setid=       0
 node=    51 local x,y,z moments=    0.0000E+00    0.0000E+00    0.0000E+00  setid=       0
 node=    52 local x,y,z forces =    3.4701E+03   -8.9959E+02   -2.7095E+04  setid=       0
 node=    52 local x,y,z moments=    0.0000E+00    0.0000E+00    0.0000E+00  setid=       0
 node=    53 local x,y,z forces =    3.2916E+03   -9.1742E+02   -3.1067E+04  setid=       0
 node=    53 local x,y,z moments=    0.0000E+00    0.0000E+00    0.0000E+00  setid=       0
 node=    54 local x,y,z forces =    1.0915E+04   -4.6690E+02   -1.9726E+04  setid=       0
 node=    54 local x,y,z moments=    0.0000E+00    0.0000E+00    0.0000E+00  setid=       0
 node=    55 local x,y,z forces =   -1.0910E+04   -1.8958E+00   -1.9677E+04  setid=       0
 node=    55 local x,y,z moments=    0.0000E+00    0.0000E+00    0.0000E+00  setid=       0
 node=    56 local x,y,z forces =   -3.2983E+03   -3.0704E+00   -3.0946E+04  setid=       0
 node=    56 local x,y,z moments=    0.0000E+00    0.0000E+00    0.0000E+00  setid=       0
 node=    57 local x,y,z forces =   -3.4814E+03   -2.2247E+00   -2.6958E+04  setid=       0
 node=    57 local x,y,z moments=    0.0000E+00    0.0000E+00    0.0000E+00  setid=       0
 node=    58 local x,y,z forces =   -1.4060E+03   -1.9408E+00   -2.7850E+04  setid=       0
 node=    58 local x,y,z moments=    0.0000E+00    0.0000E+00    0.0000E+00  setid=       0
 node=    59 local x,y,z forces =   -9.0949E-13   -1.8478E+00   -2.7199E+04  setid=       0
 node=    59 local x,y,z moments=    0.0000E+00    0.0000E+00    0.0000E+00  setid=       0
 node=    60 local x,y,z forces =    1.4060E+03   -1.9408E+00   -2.7850E+04  setid=       0
 node=    60 local x,y,z moments=    0.0000E+00    0.0000E+00    0.0000E+00  setid=       0
 node=    61 local x,y,z forces =    3.4814E+03   -2.2247E+00   -2.6958E+04  setid=       0
 node=    61 local x,y,z moments=    0.0000E+00    0.0000E+00    0.0000E+00  setid=       0
 node=    62 local x,y,z forces =    3.2983E+03   -3.0704E+00   -3.0946E+04  setid=       0
 node=    62 local x,y,z moments=    0.0000E+00    0.0000E+00    0.0000E+00  setid=       0
 node=    63 local x,y,z forces =    1.0910E+04   -1.8958E+00   -1.9677E+04  setid=       0
 node=    63 local x,y,z moments=    0.0000E+00    0.0000E+00    0.0000E+00  setid=       0
 node=    64 local x,y,z forces =   -1.0919E+04    4.6311E+02   -1.9734E+04  setid=       0
 node=    64 local x,y,z moments=    0.0000E+00    0.0000E+00    0.0000E+00  setid=       0
 node=    65 local x,y,z forces =   -3.2929E+03    9.1128E+02   -3.1079E+04  setid=       0
 node=    65 local x,y,z moments=    0.0000E+00    0.0000E+00    0.0000E+00  setid=       0
 node=    66 local x,y,z forces =   -3.4715E+03    8.9513E+02   -2.7106E+04  setid=       0
 node=    66 local x,y,z moments=    0.0000E+00    0.0000E+00    0.0000E+00  setid=       0
 node=    67 local x,y,z forces =   -1.4007E+03    8.9409E+02   -2.8001E+04  setid=       0
 node=    67 local x,y,z moments=    0.0000E+00    0.0000E+00    0.0000E+00  setid=       0
 node=    68 local x,y,z forces =   -1.2733E-11    8.9459E+02   -2.7350E+04  setid=       0
 node=    68 local x,y,z moments=    0.0000E+00    0.0000E+00    0.0000E+00  setid=       0
 node=    69 local x,y,z forces =    1.4007E+03    8.9409E+02   -2.8001E+04  setid=       0
 node=    69 local x,y,z moments=    0.0000E+00    0.0000E+00    0.0000E+00  setid=       0
 node=    70 local x,y,z forces =    3.4715E+03    8.9513E+02   -2.7106E+04  setid=       0
 node=    70 local x,y,z moments=    0.0000E+00    0.0000E+00    0.0000E+00  setid=       0
 node=    71 local x,y,z forces =    3.2929E+03    9.1128E+02   -3.1079E+04  setid=       0
 node=    71 local x,y,z moments=    0.0000E+00    0.0000E+00    0.0000E+00  setid=       0
 node=    72 local x,y,z forces =    1.0919E+04    4.6311E+02   -1.9734E+04  setid=       0
 node=    72 local x,y,z moments=    0.0000E+00    0.0000E+00    0.0000E+00  setid=       0
 node=    73 local x,y,z forces =   -1.0921E+04    9.9669E+02   -1.9662E+04  setid=       0
 node=    73 local x,y,z moments=    0.0000E+00    0.0000E+00    0.0000E+00  setid=       0
 node=    74 local x,y,z forces =   -3.2704E+03    1.9657E+03   -3.0977E+04  setid=       0
 node=    74 local x,y,z moments=    0.0000E+00    0.0000E+00    0.0000E+00  setid=       0
 node=    75 local x,y,z forces =   -3.4387E+03    1.9430E+03   -2.7021E+04  setid=       0
 node=    75 local x,y,z moments=    0.0000E+00    0.0000E+00    0.0000E+00  setid=       0
 node=    76 local x,y,z forces =   -1.3827E+03    1.9484E+03   -2.7900E+04  setid=       0
 node=    76 local x,y,z moments=    0.0000E+00    0.0000E+00    0.0000E+00  setid=       0
 node=    77 local x,y,z forces =   -8.1855E-12    1.9524E+03   -2.7247E+04  setid=       0
 node=    77 local x,y,z moments=    0.0000E+00    0.0000E+00    0.0000E+00  setid=       0
 node=    78 local x,y,z forces =    1.3827E+03    1.9484E+03   -2.7900E+04  setid=       0
 node=    78 local x,y,z moments=    0.0000E+00    0.0000E+00    0.0000E+00  setid=       0
 node=    79 local x,y,z forces =    3.4387E+03    1.9430E+03   -2.7021E+04  setid=       0
 node=    79 local x,y,z moments=    0.0000E+00    0.0000E+00    0.0000E+00  setid=       0
 node=    80 local x,y,z forces =    3.2704E+03    1.9657E+03   -3.0977E+04  setid=       0
 node=    80 local x,y,z moments=    0.0000E+00    0.0000E+00    0.0000E+00  setid=       0
 node=    81 local x,y,z forces =    1.0921E+04    9.9669E+02   -1.9662E+04  setid=       0
 node=    81 local x,y,z moments=    0.0000E+00    0.0000E+00    0.0000E+00  setid=       0
 node=    82 local x,y,z forces =   -1.0980E+04    1.4394E+03   -1.9878E+04  setid=       0
 node=    82 local x,y,z moments=    0.0000E+00    0.0000E+00    0.0000E+00  setid=       0
 node=    83 local x,y,z forces =   -3.2311E+03    2.8407E+03   -3.1492E+04  setid=       0
 node=    83 local x,y,z moments=    0.0000E+00    0.0000E+00    0.0000E+00  setid=       0
 node=    84 local x,y,z forces =   -3.3811E+03    2.8163E+03   -2.7582E+04  setid=       0
 node=    84 local x,y,z moments=    0.0000E+00    0.0000E+00    0.0000E+00  setid=       0
 node=    85 local x,y,z forces =   -1.3512E+03    2.8358E+03   -2.8446E+04  setid=       0
 node=    85 local x,y,z moments=    0.0000E+00    0.0000E+00    0.0000E+00  setid=       0
 node=    86 local x,y,z forces =    8.1855E-12    2.8465E+03   -2.7791E+04  setid=       0
 node=    86 local x,y,z moments=    0.0000E+00    0.0000E+00    0.0000E+00  setid=       0
 node=    87 local x,y,z forces =    1.3512E+03    2.8358E+03   -2.8446E+04  setid=       0
 node=    87 local x,y,z moments=    0.0000E+00    0.0000E+00    0.0000E+00  setid=       0
 node=    88 local x,y,z forces =    3.3811E+03    2.8163E+03   -2.7582E+04  setid=       0
 node=    88 local x,y,z moments=    0.0000E+00    0.0000E+00    0.0000E+00  setid=       0
 node=    89 local x,y,z forces =    3.2311E+03    2.8407E+03   -3.1492E+04  setid=       0
 node=    89 local x,y,z moments=    0.0000E+00    0.0000E+00    0.0000E+00  setid=       0
 node=    90 local x,y,z forces =    1.0980E+04    1.4394E+03   -1.9878E+04  setid=       0
 node=    90 local x,y,z moments=    0.0000E+00    0.0000E+00    0.0000E+00  setid=       0
 node=    91 local x,y,z forces =   -1.1046E+04    2.2786E+03   -1.9688E+04  setid=       0
 node=    91 local x,y,z moments=    0.0000E+00    0.0000E+00    0.0000E+00  setid=       0
 node=    92 local x,y,z forces =   -3.1731E+03    4.5296E+03   -3.1182E+04  setid=       0
 node=    92 local x,y,z moments=    0.0000E+00    0.0000E+00    0.0000E+00  setid=       0
 node=    93 local x,y,z forces =   -3.2980E+03    4.5545E+03   -2.7272E+04  setid=       0
 node=    93 local x,y,z moments=    0.0000E+00    0.0000E+00    0.0000E+00  setid=       0
 node=    94 local x,y,z forces =   -1.3118E+03    4.6165E+03   -2.8072E+04  setid=       0
 node=    94 local x,y,z moments=    0.0000E+00    0.0000E+00    0.0000E+00  setid=       0
 node=    95 local x,y,z forces =    5.4570E-12    4.6401E+03   -2.7403E+04  setid=       0
 node=    95 local x,y,z moments=    0.0000E+00    0.0000E+00    0.0000E+00  setid=       0
 node=    96 local x,y,z forces =    1.3118E+03    4.6165E+03   -2.8072E+04  setid=       0
 node=    96 local x,y,z moments=    0.0000E+00    0.0000E+00    0.0000E+00  setid=       0
 node=    97 local x,y,z forces =    3.2980E+03    4.5545E+03   -2.7272E+04  setid=       0
 node=    97 local x,y,z moments=    0.0000E+00    0.0000E+00    0.0000E+00  setid=       0
 node=    98 local x,y,z forces =    3.1731E+03    4.5296E+03   -3.1182E+04  setid=       0
 node=    98 local x,y,z moments=    0.0000E+00    0.0000E+00    0.0000E+00  setid=       0
 node=    99 local x,y,z forces =    1.1046E+04    2.2786E+03   -1.9688E+04  setid=       0
 node=    99 local x,y,z moments=    0.0000E+00    0.0000E+00    0.0000E+00  setid=       0
 node=   100 local x,y,z forces =   -1.1868E+04    1.8647E+03   -2.2046E+04  setid=       0
 node=   100 local x,y,z moments=    0.0000E+00    0.0000E+00    0.0000E+00  setid=       0
 node=   101 local x,y,z forces =   -3.1351E+03    3.7186E+03   -3.5963E+04  setid=       0
 node=   101 local x,y,z moments=    0.0000E+00    0.0000E+00    0.0000E+00  setid=       0
 node=   102 local x,y,z forces =   -3.2505E+03    3.7735E+03   -3.2118E+04  setid=       0
 node=   102 local x,y,z moments=    0.0000E+00    0.0000E+00    0.0000E+00  setid=       0
 node=   103 local x,y,z forces =   -1.3003E+03    3.8363E+03   -3.2905E+04  setid=       0
 node=   103 local x,y,z moments=    0.0000E+00    0.0000E+00    0.0000E+00  setid=       0
 node=   104 local x,y,z forces =   -1.0914E-11    3.8563E+03   -3.2245E+04  setid=       0
 node=   104 local x,y,z moments=    0.0000E+00    0.0000E+00    0.0000E+00  setid=       0
 node=   105 local x,y,z forces =    1.3003E+03    3.8363E+03   -3.2905E+04  setid=       0
 node=   105 local x,y,z moments=    0.0000E+00    0.0000E+00    0.0000E+00  setid=       0
 node=   106 local x,y,z forces =    3.2505E+03    3.7735E+03   -3.2118E+04  setid=       0
 node=   106 local x,y,z moments=    0.0000E+00    0.0000E+00    0.0000E+00  setid=       0
 node=   107 local x,y,z forces =    3.1351E+03    3.7186E+03   -3.5963E+04  setid=       0
 node=   107 local x,y,z moments=    0.0000E+00    0.0000E+00    0.0000E+00  setid=       0
 node=   108 local x,y,z forces =    1.1868E+04    1.8647E+03   -2.2046E+04  setid=       0
 node=   108 local x,y,z moments=    0.0000E+00    0.0000E+00    0.0000E+00  setid=       0
 node=   109 local x,y,z forces =   -6.3861E+03    6.5728E+03   -1.3438E+04  setid=       0
 node=   109 local x,y,z moments=    0.0000E+00    0.0000E+00    0.0000E+00  setid=       0
 node=   110 local x,y,z forces =   -1.5790E+03    1.2479E+04   -2.2841E+04  setid=       0
 node=   110 local x,y,z moments=    0.0000E+00    0.0000E+00    0.0000E+00  setid=       0
 node=   111 local x,y,z forces =   -1.6320E+03    1.1919E+04   -2.0979E+04  setid=       0
 node=   111 local x,y,z moments=    0.0000E+00    0.0000E+00    0.0000E+00  setid=       0
 node=   112 local x,y,z forces =   -6.5639E+02    1.1923E+04   -2.1405E+04  setid=       0
 node=   112 local x,y,z moments=    0.0000E+00    0.0000E+00    0.0000E+00  setid=       0
 node=   113 local x,y,z forces =   -9.0949E-12    1.1889E+04   -2.1091E+04  setid=       0
 node=   113 local x,y,z moments=    0.0000E+00    0.0000E+00    0.0000E+00  setid=       0
 node=   114 local x,y,z forces =    6.5639E+02    1.1923E+04   -2.1405E+04  setid=       0
 node=   114 local x,y,z moments=    0.0000E+00    0.0000E+00    0.0000E+00  setid=       0
 node=   115 local x,y,z forces =    1.6320E+03    1.1919E+04   -2.0979E+04  setid=       0
 node=   115 local x,y,z moments=    0.0000E+00    0.0000E+00    0.0000E+00  setid=       0
 node=   116 local x,y,z forces =    1.5790E+03    1.2479E+04   -2.2841E+04  setid=       0
 node=   116 local x,y,z moments=    0.0000E+00    0.0000E+00    0.0000E+00  setid=       0
 node=   117 local x,y,z forces =    6.3861E+03    6.5728E+03   -1.3438E+04  setid=       0
 node=   117 local x,y,z moments=    0.0000E+00    0.0000E+00    0.0000E+00  setid=       0
 node=  2926 local x,y,z forces =   -1.0410E+04    0.0000E+00    0.0000E+00  setid=       0
 node=  2934 local x,y,z forces =    1.0410E+04    0.0000E+00    0.0000E+00  setid=       0
 node=  2935 local x,y,z forces =   -2.2435E+04    0.0000E+00    0.0000E+00  setid=       0
 node=  2943 local x,y,z forces =    2.2435E+04    0.0000E+00    0.0000E+00  setid=       0
 node=  2944 local x,y,z forces =   -2.3415E+04    0.0000E+00    0.0000E+00  setid=       0
 node=  2952 local x,y,z forces =    2.3415E+04    0.0000E+00    0.0000E+00  setid=       0
 node=  2953 local x,y,z forces =   -2.3488E+04    0.0000E+00    0.0000E+00  setid=       0
 node=  2961 local x,y,z forces =    2.3488E+04    0.0000E+00    0.0000E+00  setid=       0
 node=  2962 local x,y,z forces =   -2.3592E+04    0.0000E+00    0.0000E+00  setid=       0
 node=  2970 local x,y,z forces =    2.3592E+04    0.0000E+00    0.0000E+00  setid=       0
 node=  2971 local x,y,z forces =   -2.3620E+04    0.0000E+00    0.0000E+00  setid=       0
 node=  2979 local x,y,z forces =    2.3620E+04    0.0000E+00    0.0000E+00  setid=       0
 node=  2980 local x,y,z forces =   -2.3641E+04    0.0000E+00    0.0000E+00  setid=       0
 node=  2988 local x,y,z forces =    2.3641E+04    0.0000E+00    0.0000E+00  setid=       0
 node=  2989 local x,y,z forces =   -2.3627E+04    0.0000E+00    0.0000E+00  setid=       0
 node=  2997 local x,y,z forces =    2.3627E+04    0.0000E+00    0.0000E+00  setid=       0
 node=  2998 local x,y,z forces =   -2.3607E+04    0.0000E+00    0.0000E+00  setid=       0
 node=  3006 local x,y,z forces =    2.3607E+04    0.0000E+00    0.0000E+00  setid=       0
 node=  3007 local x,y,z forces =   -2.3509E+04    0.0000E+00    0.0000E+00  setid=       0
 node=  3015 local x,y,z forces =    2.3509E+04    0.0000E+00    0.0000E+00  setid=       0
 node=  3016 local x,y,z forces =   -2.3444E+04    0.0000E+00    0.0000E+00  setid=       0
 node=  3024 local x,y,z forces =    2.3444E+04    0.0000E+00    0.0000E+00  setid=       0
 node=  3025 local x,y,z forces =   -2.2471E+04    0.0000E+00    0.0000E+00  setid=       0
 node=  3033 local x,y,z forces =    2.2471E+04    0.0000E+00    0.0000E+00  setid=       0
 node=  3034 local x,y,z forces =   -1.0429E+04    0.0000E+00    0.0000E+00  setid=       0
 node=  3042 local x,y,z forces =    1.0429E+04    0.0000E+00    0.0000E+00  setid=       0
             force resultants   =   -5.0568E-10    2.6518E+01   -3.0695E+06
 output at time =   4.00000E-04
 node=     1 local x,y,z forces =   -1.2745E+04   -1.3123E+04   -2.6830E+04  setid=       0
 node=     1 local x,y,z moments=    0.0000E+00    0.0000E+00    0.0000E+00  setid=       0
 node=     2 local x,y,z forces =   -3.1485E+03   -2.4913E+04   -4.5602E+04  setid=       0
 node=     2 local x,y,z moments=    0.0000E+00    0.0000E+00    0.0000E+00  setid=       0
 node=     3 local x,y,z forces =   -3.2559E+03   -2.3793E+04   -4.1880E+04  setid=       0
 node=     3 local x,y,z moments=    0.0000E+00    0.0000E+00    0.0000E+00  setid=       0
 node=     4 local x,y,z forces =   -1.3094E+03   -2.3800E+04   -4.2729E+04  setid=       0
 node=     4 local x,y,z moments=    0.0000E+00    0.0000E+00    0.0000E+00  setid=       0
 node=     5 local x,y,z forces =   -2.5466E-11   -2.3731E+04   -4.2102E+04  setid=       0
 node=     5 local x,y,z moments=    0.0000E+00    0.0000E+00    0.0000E+00  setid=       0
 node=     6 local x,y,z forces =    1.3094E+03   -2.3800E+04   -4.2729E+04  setid=       0
 node=     6 local x,y,z moments=    0.0000E+00    0.0000E+00    0.0000E+00  setid=       0
 node=     7 local x,y,z forces =    3.2559E+03   -2.3793E+04   -4.1880E+04  setid=       0
 node=     7 local x,y,z moments=    0.0000E+00    0.0000E+00    0.0000E+00  setid=       0
 node=     8 local x,y,z forces =    3.1485E+03   -2.4913E+04   -4.5602E+04  setid=       0
 node=     8 local x,y,z moments=    0.0000E+00    0.0000E+00    0.0000E+00  setid=       0
 node=     9 local x,y,z forces =    1.2745E+04   -1.3123E+04   -2.6830E+04  setid=       0
 node=     9 local x,y,z moments=    0.0000E+00    0.0000E+00    0.0000E+00  setid=       0
 node=    10 local x,y,z forces =   -2.3690E+04   -3.7343E+03   -4.4023E+04  setid=       0
 node=    10 local x,y,z moments=    0.0000E+00    0.0000E+00    0.0000E+00  setid=       0
 node=    11 local x,y,z forces =   -6.2561E+03   -7.4448E+03   -7.1808E+04  setid=       0
 node=    11 local x,y,z moments=    0.0000E+00    0.0000E+00    0.0000E+00  setid=       0
 node=    12 local x,y,z forces =   -6.4885E+03   -7.5519E+03   -6.4127E+04  setid=       0
 node=    12 local x,y,z moments=    0.0000E+00    0.0000E+00    0.0000E+00  setid=       0
 node=    13 local x,y,z forces =   -2.5953E+03   -7.6767E+03   -6.5696E+04  setid=       0
 node=    13 local x,y,z moments=    0.0000E+00    0.0000E+00    0.0000E+00  setid=       0
 node=    14 local x,y,z forces =   -5.8208E-11   -7.7164E+03   -6.4377E+04  setid=       0
 node=    14 local x,y,z moments=    0.0000E+00    0.0000E+00    0.0000E+00  setid=       0
 node=    15 local x,y,z forces =    2.5953E+03   -7.6767E+03   -6.5696E+04  setid=       0
 node=    15 local x,y,z moments=    0.0000E+00    0.0000E+00    0.0000E+00  setid=       0
 node=    16 local x,y,z forces =    6.4885E+03   -7.5519E+03   -6.4127E+04  setid=       0
 node=    16 local x,y,z moments=    0.0000E+00    0.0000E+00    0.0000E+00  setid=       0
 node=    17 local x,y,z forces =    6.2561E+03   -7.4448E+03   -7.1808E+04  setid=       0
 node=    17 local x,y,z moments=    0.0000E+00    0.0000E+00    0.0000E+00  setid=       0
 node=    18 local x,y,z forces =    2.3690E+04   -3.7343E+03   -4.4023E+04  setid=       0
 node=    18 local x,y,z moments=    0.0000E+00    0.0000E+00    0.0000E+00  setid=       0
 node=    19 local x,y,z forces =   -2.2059E+04   -4.5615E+03   -3.9330E+04  setid=       0
 node=    19 local x,y,z moments=    0.0000E+00    0.0000E+00    0.0000E+00  setid=       0
 node=    20 local x,y,z forces =   -6.3353E+03   -9.0653E+03   -6.2285E+04  setid=       0
 node=    20 local x,y,z moments=    0.0000E+00    0.0000E+00    0.0000E+00  setid=       0
 node=    21 local x,y,z forces =   -6.5866E+03   -9.1118E+03   -5.4471E+04  setid=       0
 node=    21 local x,y,z moments=    0.0000E+00    0.0000E+00    0.0000E+00  setid=       0
 node=    22 local x,y,z forces =   -2.6196E+03   -9.2347E+03   -5.6068E+04  setid=       0
 node=    22 local x,y,z moments=    0.0000E+00    0.0000E+00    0.0000E+00  setid=       0
 node=    23 local x,y,z forces =   -5.0932E-11   -9.2815E+03   -5.4732E+04  setid=       0
 node=    23 local x,y,z moments=    0.0000E+00    0.0000E+00    0.0000E+00  setid=       0
 node=    24 local x,y,z forces =    2.6196E+03   -9.2347E+03   -5.6068E+04  setid=       0
 node=    24 local x,y,z moments=    0.0000E+00    0.0000E+00    0.0000E+00  setid=       0
 node=    25 local x,y,z forces =    6.5866E+03   -9.1118E+03   -5.4471E+04  setid=       0
 node=    25 local x,y,z moments=    0.0000E+00    0.0000E+00    0.0000E+00  setid=       0
 node=    26 local x,y,z forces =    6.3353E+03   -9.0653E+03   -6.2285E+04  setid=       0
 node=    26 local x,y,z moments=    0.0000E+00    0.0000E+00    0.0000E+00  setid=       0
 node=    27 local x,y,z forces =    2.2059E+04   -4.5615E+03   -3.9330E+04  setid=       0
 node=    27 local x,y,z moments=    0.0000E+00    0.0000E+00    0.0000E+00  setid=       0
 node=    28 local x,y,z forces =   -2.1936E+04   -2.8850E+03   -3.9725E+04  setid=       0
 node=    28 local x,y,z moments=    0.0000E+00    0.0000E+00    0.0000E+00  setid=       0
 node=    29 local x,y,z forces =   -6.4537E+03   -5.6910E+03   -6.2930E+04  setid=       0
 node=    29 local x,y,z moments=    0.0000E+00    0.0000E+00    0.0000E+00  setid=       0
 node=    30 local x,y,z forces =   -6.7555E+03   -5.6390E+03   -5.5114E+04  setid=       0
 node=    30 local x,y,z moments=    0.0000E+00    0.0000E+00    0.0000E+00  setid=       0
 node=    31 local x,y,z forces =   -2.6995E+03   -5.6770E+03   -5.6840E+04  setid=       0
 node=    31 local x,y,z moments=    0.0000E+00    0.0000E+00    0.0000E+00  setid=       0
 node=    32 local x,y,z forces =   -3.6380E-12   -5.6980E+03   -5.5530E+04  setid=       0
 node=    32 local x,y,z moments=    0.0000E+00    0.0000E+00    0.0000E+00  setid=       0
 node=    33 local x,y,z forces =    2.6995E+03   -5.6770E+03   -5.6840E+04  setid=       0
 node=    33 local x,y,z moments=    0.0000E+00    0.0000E+00    0.0000E+00  setid=       0
 node=    34 local x,y,z forces =    6.7555E+03   -5.6390E+03   -5.5114E+04  setid=       0
 node=    34 local x,y,z moments=    0.0000E+00    0.0000E+00    0.0000E+00  setid=       0
 node=    35 local x,y,z forces =    6.4537E+03   -5.6910E+03   -6.2930E+04  setid=       0
 node=    35 local x,y,z moments=    0.0000E+00    0.0000E+00    0.0000E+00  setid=       0
 node=    36 local x,y,z forces =    2.1936E+04   -2.8850E+03   -3.9725E+04  setid=       0
 node=    36 local x,y,z moments=    0.0000E+00    0.0000E+00    0.0000E+00  setid=       0
 node=    37 local x,y,z forces =   -2.1827E+04   -1.9999E+03   -3.9308E+04  setid=       0
 node=    37 local x,y,z moments=    0.0000E+00    0.0000E+00    0.0000E+00  setid=       0
 node=    38 local x,y,z forces =   -6.5348E+03   -3.9418E+03   -6.1925E+04  setid=       0
 node=    38 local x,y,z moments=    0.0000E+00    0.0000E+00    0.0000E+00  setid=       0
 node=    39 local x,y,z forces =   -6.8731E+03   -3.8932E+03   -5.4012E+04  setid=       0
 node=    39 local x,y,z moments=    0.0000E+00    0.0000E+00    0.0000E+00  setid=       0
 node=    40 local x,y,z forces =   -2.7636E+03   -3.9029E+03   -5.5770E+04  setid=       0
 node=    40 local x,y,z moments=    0.0000E+00    0.0000E+00    0.0000E+00  setid=       0
 node=    41 local x,y,z forces =    1.6371E-11   -3.9106E+03   -5.4464E+04  setid=       0
 node=    41 local x,y,z moments=    0.0000E+00    0.0000E+00    0.0000E+00  setid=       0
 node=    42 local x,y,z forces =    2.7636E+03   -3.9029E+03   -5.5770E+04  setid=       0
 node=    42 local x,y,z moments=    0.0000E+00    0.0000E+00    0.0000E+00  setid=       0
 node=    43 local x,y,z forces =    6.8731E+03   -3.8932E+03   -5.4012E+04  setid=       0
 node=    43 local x,y,z moments=    0.0000E+00    0.0000E+00    0.0000E+00  setid=       0
 node=    44 local x,y,z forces =    6.5348E+03   -3.9418E+03   -6.1925E+04  setid=       0
 node=    44 local x,y,z moments=    0.0000E+00    0.0000E+00    0.0000E+00  setid=       0
 node=    45 local x,y,z forces =    2.1827E+04   -1.9999E+03   -3.9308E+04  setid=       0
 node=    45 local x,y,z moments=    0.0000E+00    0.0000E+00    0.0000E+00  setid=       0
 node=    46 local x,y,z forces =   -2.1830E+04   -9.3312E+02   -3.9467E+04  setid=       0
 node=    46 local x,y,z moments=    0.0000E+00    0.0000E+00    0.0000E+00  setid=       0
 node=    47 local x,y,z forces =   -6.5824E+03   -1.8337E+03   -6.2152E+04  setid=       0
 node=    47 local x,y,z moments=    0.0000E+00    0.0000E+00    0.0000E+00  setid=       0
 node=    48 local x,y,z forces =   -6.9413E+03   -1.7983E+03   -5.4203E+04  setid=       0
 node=    48 local x,y,z moments=    0.0000E+00    0.0000E+00    0.0000E+00  setid=       0
 node=    49 local x,y,z forces =   -2.8006E+03   -1.7952E+03   -5.5993E+04  setid=       0
 node=    49 local x,y,z moments=    0.0000E+00    0.0000E+00    0.0000E+00  setid=       0
 node=    50 local x,y,z forces =    3.2742E-11   -1.7959E+03   -5.4691E+04  setid=       0
 node=    50 local x,y,z moments=    0.0000E+00    0.0000E+00    0.0000E+00  setid=       0
 node=    51 local x,y,z forces =    2.8006E+03   -1.7952E+03   -5.5993E+04  setid=       0
 node=    51 local x,y,z moments=    0.0000E+00    0.0000E+00    0.0000E+00  setid=       0
 node=    52 local x,y,z forces =    6.9413E+03   -1.7983E+03   -5.4203E+04  setid=       0
 node=    52 local x,y,z moments=    0.0000E+00    0.0000E+00    0.0000E+00  setid=       0
 node=    53 local x,y,z forces =    6.5824E+03   -1.8337E+03   -6.2152E+04  setid=       0
 node=    53 local x,y,z moments=    0.0000E+00    0.0000E+00    0.0000E+00  setid=       0
 node=    54 local x,y,z forces =    2.1830E+04   -9.3312E+02   -3.9467E+04  setid=       0
 node=    54 local x,y,z moments=    0.0000E+00    0.0000E+00    0.0000E+00  setid=       0
 node=    55 local x,y,z forces =   -2.1820E+04   -3.0313E+00   -3.9367E+04  setid=       0
 node=    55 local x,y,z moments=    0.0000E+00    0.0000E+00    0.0000E+00  setid=       0
 node=    56 local x,y,z forces =   -6.5956E+03   -4.8588E+00   -6.1909E+04  setid=       0
 node=    56 local x,y,z moments=    0.0000E+00    0.0000E+00    0.0000E+00  setid=       0
 node=    57 local x,y,z forces =   -6.9636E+03   -3.4554E+00   -5.3926E+04  setid=       0
 node=    57 local x,y,z moments=    0.0000E+00    0.0000E+00    0.0000E+00  setid=       0
 node=    58 local x,y,z forces =   -2.8122E+03   -2.9901E+00   -5.5712E+04  setid=       0
 node=    58 local x,y,z moments=    0.0000E+00    0.0000E+00    0.0000E+00  setid=       0
 node=    59 local x,y,z forces =    2.0009E-11   -2.8389E+00   -5.4408E+04  setid=       0
 node=    59 local x,y,z moments=    0.0000E+00    0.0000E+00    0.0000E+00  setid=       0
 node=    60 local x,y,z forces =    2.8122E+03   -2.9901E+00   -5.5712E+04  setid=       0
 node=    60 local x,y,z moments=    0.0000E+00    0.0000E+00    0.0000E+00  setid=       0
 node=    61 local x,y,z forces =    6.9636E+03   -3.4554E+00   -5.3926E+04  setid=       0
 node=    61 local x,y,z moments=    0.0000E+00    0.0000E+00    0.0000E+00  setid=       0
 node=    62 local x,y,z forces =    6.5956E+03   -4.8588E+00   -6.1909E+04  setid=       0
 node=    62 local x,y,z moments=    0.0000E+00    0.0000E+00    0.0000E+00  setid=       0
 node=    63 local x,y,z forces =    2.1820E+04   -3.0313E+00   -3.9367E+04  setid=       0
 node=    63 local x,y,z moments=    0.0000E+00    0.0000E+00    0.0000E+00  setid=       0
 node=    64 local x,y,z forces =   -2.1837E+04    9.2703E+02   -3.9480E+04  setid=       0
 node=    64 local x,y,z moments=    0.0000E+00    0.0000E+00    0.0000E+00  setid=       0
 node=    65 local x,y,z forces =   -6.5847E+03    1.8239E+03   -6.2172E+04  setid=       0
 node=    65 local x,y,z moments=    0.0000E+00    0.0000E+00    0.0000E+00  setid=       0
 node=    66 local x,y,z forces =   -6.9436E+03    1.7913E+03   -5.4221E+04  setid=       0
 node=    66 local x,y,z moments=    0.0000E+00    0.0000E+00    0.0000E+00  setid=       0
 node=    67 local x,y,z forces =   -2.8015E+03    1.7891E+03   -5.6012E+04  setid=       0
 node=    67 local x,y,z moments=    0.0000E+00    0.0000E+00    0.0000E+00  setid=       0
 node=    68 local x,y,z forces =    0.0000E+00    1.7901E+03   -5.4709E+04  setid=       0
 node=    68 local x,y,z moments=    0.0000E+00    0.0000E+00    0.0000E+00  setid=       0
 node=    69 local x,y,z forces =    2.8015E+03    1.7891E+03   -5.6012E+04  setid=       0
 node=    69 local x,y,z moments=    0.0000E+00    0.0000E+00    0.0000E+00  setid=       0
 node=    70 local x,y,z forces =    6.9436E+03    1.7913E+03   -5.4221E+04  setid=       0
 node=    70 local x,y,z moments=    0.0000E+00    0.0000E+00    0.0000E+00  setid=       0
 node=    71 local x,y,z forces =    6.5847E+03    1.8239E+03   -6.2172E+04  setid=       0
 node=    71 local x,y,z moments=    0.0000E+00    0.0000E+00    0.0000E+00  setid=       0
 node=    72 local x,y,z forces =    2.1837E+04    9.2703E+02   -3.9480E+04  setid=       0
 node=    72 local x,y,z moments=    0.0000E+00    0.0000E+00    0.0000E+00  setid=       0
 node=    73 local x,y,z forces =   -2.1841E+04    1.9942E+03   -3.9335E+04  setid=       0
 node=    73 local x,y,z moments=    0.0000E+00    0.0000E+00    0.0000E+00  setid=       0
 node=    74 local x,y,z forces =   -6.5394E+03    3.9329E+03   -6.1966E+04  setid=       0
 node=    74 local x,y,z moments=    0.0000E+00    0.0000E+00    0.0000E+00  setid=       0
 node=    75 local x,y,z forces =   -6.8778E+03    3.8870E+03   -5.4049E+04  setid=       0
 node=    75 local x,y,z moments=    0.0000E+00    0.0000E+00    0.0000E+00  setid=       0
 node=    76 local x,y,z forces =   -2.7655E+03    3.8977E+03   -5.5808E+04  setid=       0
 node=    76 local x,y,z moments=    0.0000E+00    0.0000E+00    0.0000E+00  setid=       0
 node=    77 local x,y,z forces =   -3.2742E-11    3.9057E+03   -5.4501E+04  setid=       0
 node=    77 local x,y,z moments=    0.0000E+00    0.0000E+00    0.0000E+00  setid=       0
 node=    78 local x,y,z forces =    2.7655E+03    3.8977E+03   -5.5808E+04  setid=       0
 node=    78 local x,y,z moments=    0.0000E+00    0.0000E+00    0.0000E+00  setid=       0
 node=    79 local x,y,z forces =    6.8778E+03    3.8870E+03   -5.4049E+04  setid=       0
 node=    79 local x,y,z moments=    0.0000E+00    0.0000E+00    0.0000E+00  setid=       0
 node=    80 local x,y,z forces =    6.5394E+03    3.9329E+03   -6.1966E+04  setid=       0
 node=    80 local x,y,z moments=    0.0000E+00    0.0000E+00    0.0000E+00  setid=       0
 node=    81 local x,y,z forces =    2.1841E+04    1.9942E+03   -3.9335E+04  setid=       0
 node=    81 local x,y,z moments=    0.0000E+00    0.0000E+00    0.0000E+00  setid=       0
 node=    82 local x,y,z forces =   -2.1959E+04    2.8795E+03   -3.9765E+04  setid=       0
 node=    82 local x,y,z moments=    0.0000E+00    0.0000E+00    0.0000E+00  setid=       0
 node=    83 local x,y,z forces =   -6.4606E+03    5.6825E+03   -6.2995E+04  setid=       0
 node=    83 local x,y,z moments=    0.0000E+00    0.0000E+00    0.0000E+00  setid=       0
 node=    84 local x,y,z forces =   -6.7625E+03    5.6332E+03   -5.5171E+04  setid=       0
 node=    84 local x,y,z moments=    0.0000E+00    0.0000E+00    0.0000E+00  setid=       0
 node=    85 local x,y,z forces =   -2.7024E+03    5.6722E+03   -5.6900E+04  setid=       0
 node=    85 local x,y,z moments=    0.0000E+00    0.0000E+00    0.0000E+00  setid=       0
 node=    86 local x,y,z forces =   -5.6389E-11    5.6935E+03   -5.5589E+04  setid=       0
 node=    86 local x,y,z moments=    0.0000E+00    0.0000E+00    0.0000E+00  setid=       0
 node=    87 local x,y,z forces =    2.7024E+03    5.6722E+03   -5.6900E+04  setid=       0
 node=    87 local x,y,z moments=    0.0000E+00    0.0000E+00    0.0000E+00  setid=       0
 node=    88 local x,y,z forces =    6.7625E+03    5.6332E+03   -5.5171E+04  setid=       0
 node=    88 local x,y,z moments=    0.0000E+00    0.0000E+00    0.0000E+00  setid=       0
 node=    89 local x,y,z forces =    6.4606E+03    5.6825E+03   -6.2995E+04  setid=       0
 node=    89 local x,y,z moments=    0.0000E+00    0.0000E+00    0.0000E+00  setid=       0
 node=    90 local x,y,z forces =    2.1959E+04    2.8795E+03   -3.9765E+04  setid=       0
 node=    90 local x,y,z moments=    0.0000E+00    0.0000E+00    0.0000E+00  setid=       0
 node=    91 local x,y,z forces =   -2.2090E+04    4.5578E+03   -3.9385E+04  setid=       0
 node=    91 local x,y,z moments=    0.0000E+00    0.0000E+00    0.0000E+00  setid=       0
 node=    92 local x,y,z forces =   -6.3445E+03    9.0603E+03   -6.2372E+04  setid=       0
 node=    92 local x,y,z moments=    0.0000E+00    0.0000E+00    0.0000E+00  setid=       0
 node=    93 local x,y,z forces =   -6.5961E+03    9.1097E+03   -5.4548E+04  setid=       0
 node=    93 local x,y,z moments=    0.0000E+00    0.0000E+00    0.0000E+00  setid=       0
 node=    94 local x,y,z forces =   -2.6234E+03    9.2338E+03   -5.6149E+04  setid=       0
 node=    94 local x,y,z moments=    0.0000E+00    0.0000E+00    0.0000E+00  setid=       0
 node=    95 local x,y,z forces =   -2.7285E-11    9.2809E+03   -5.4811E+04  setid=       0
 node=    95 local x,y,z moments=    0.0000E+00    0.0000E+00    0.0000E+00  setid=       0
 node=    96 local x,y,z forces =    2.6234E+03    9.2338E+03   -5.6149E+04  setid=       0
 node=    96 local x,y,z moments=    0.0000E+00    0.0000E+00    0.0000E+00  setid=       0
 node=    97 local x,y,z forces =    6.5961E+03    9.1097E+03   -5.4548E+04  setid=       0
 node=    97 local x,y,z moments=    0.0000E+00    0.0000E+00    0.0000E+00  setid=       0
 node=    98 local x,y,z forces =    6.3445E+03    9.0603E+03   -6.2372E+04  setid=       0
 node=    98 local x,y,z moments=    0.0000E+00    0.0000E+00    0.0000E+00  setid=       0
 node=    99 local x,y,z forces =    2.2090E+04    4.5578E+03   -3.9385E+04  setid=       0
 node=    99 local x,y,z moments=    0.0000E+00    0.0000E+00    0.0000E+00  setid=       0
 node=   100 local x,y,z forces =   -2.3733E+04    3.7286E+03   -4.4102E+04  setid=       0
 node=   100 local x,y,z moments=    0.0000E+00    0.0000E+00    0.0000E+00  setid=       0
 node=   101 local x,y,z forces =   -6.2682E+03    7.4356E+03   -7.1938E+04  setid=       0
 node=   101 local x,y,z moments=    0.0000E+00    0.0000E+00    0.0000E+00  setid=       0
 node=   102 local x,y,z forces =   -6.5007E+03    7.5452E+03   -6.4245E+04  setid=       0
 node=   102 local x,y,z moments=    0.0000E+00    0.0000E+00    0.0000E+00  setid=       0
 node=   103 local x,y,z forces =   -2.6002E+03    7.6708E+03   -6.5819E+04  setid=       0
 node=   103 local x,y,z moments=    0.0000E+00    0.0000E+00    0.0000E+00  setid=       0
 node=   104 local x,y,z forces =    1.8190E-12    7.7108E+03   -6.4498E+04  setid=       0
 node=   104 local x,y,z moments=    0.0000E+00    0.0000E+00    0.0000E+00  setid=       0
 node=   105 local x,y,z forces =    2.6002E+03    7.6708E+03   -6.5819E+04  setid=       0
 node=   105 local x,y,z moments=    0.0000E+00    0.0000E+00    0.0000E+00  setid=       0
 node=   106 local x,y,z forces =    6.5007E+03    7.5452E+03   -6.4245E+04  setid=       0
 node=   106 local x,y,z moments=    0.0000E+00    0.0000E+00    0.0000E+00  setid=       0
 node=   107 local x,y,z forces =    6.2682E+03    7.4356E+03   -7.1938E+04  setid=       0
 node=   107 local x,y,z moments=    0.0000E+00    0.0000E+00    0.0000E+00  setid=       0
 node=   108 local x,y,z forces =    2.3733E+04    3.7286E+03   -4.4102E+04  setid=       0
 node=   108 local x,y,z moments=    0.0000E+00    0.0000E+00    0.0000E+00  setid=       0
 node=   109 local x,y,z forces =   -1.2771E+04    1.3144E+04   -2.6883E+04  setid=       0
 node=   109 local x,y,z moments=    0.0000E+00    0.0000E+00    0.0000E+00  setid=       0
 node=   110 local x,y,z forces =   -3.1568E+03    2.4954E+04   -4.5693E+04  setid=       0
 node=   110 local x,y,z moments=    0.0000E+00    0.0000E+00    0.0000E+00  setid=       0
 node=   111 local x,y,z forces =   -3.2638E+03    2.3835E+04   -4.1967E+04  setid=       0
 node=   111 local x,y,z moments=    0.0000E+00    0.0000E+00    0.0000E+00  setid=       0
 node=   112 local x,y,z forces =   -1.3126E+03    2.3842E+04   -4.2819E+04  setid=       0
 node=   112 local x,y,z moments=    0.0000E+00    0.0000E+00    0.0000E+00  setid=       0
 node=   113 local x,y,z forces =    7.2760E-12    2.3774E+04   -4.2191E+04  setid=       0
 node=   113 local x,y,z moments=    0.0000E+00    0.0000E+00    0.0000E+00  setid=       0
 node=   114 local x,y,z forces =    1.3126E+03    2.3842E+04   -4.2819E+04  setid=       0
 node=   114 local x,y,z moments=    0.0000E+00    0.0000E+00    0.0000E+00  setid=       0
 node=   115 local x,y,z forces =    3.2638E+03    2.3835E+04   -4.1967E+04  setid=       0
 node=   115 local x,y,z moments=    0.0000E+00    0.0000E+00    0.0000E+00  setid=       0
 node=   116 local x,y,z forces =    3.1568E+03    2.4954E+04   -4.5693E+04  setid=       0
 node=   116 local x,y,z moments=    0.0000E+00    0.0000E+00    0.0000E+00  setid=       0
 node=   117 local x,y,z forces =    1.2771E+04    1.3144E+04   -2.6883E+04  setid=       0
 node=   117 local x,y,z moments=    0.0000E+00    0.0000E+00    0.0000E+00  setid=       0
 node=  2926 local x,y,z forces =   -2.0814E+04    0.0000E+00    0.0000E+00  setid=       0
 node=  2934 local x,y,z forces =    2.0814E+04    0.0000E+00    0.0000E+00  setid=       0
 node=  2935 local x,y,z forces =   -4.4861E+04    0.0000E+00    0.0000E+00  setid=       0
 node=  2943 local x,y,z forces =    4.4861E+04    0.0000E+00    0.0000E+00  setid=       0
 node=  2944 local x,y,z forces =   -4.6823E+04    0.0000E+00    0.0000E+00  setid=       0
 node=  2952 local x,y,z forces =    4.6823E+04    0.0000E+00    0.0000E+00  setid=       0
 node=  2953 local x,y,z forces =   -4.6969E+04    0.0000E+00    0.0000E+00  setid=       0
 node=  2961 local x,y,z forces =    4.6969E+04    0.0000E+00    0.0000E+00  setid=       0
 node=  2962 local x,y,z forces =   -4.7180E+04    0.0000E+00    0.0000E+00  setid=       0
 node=  2970 local x,y,z forces =    4.7180E+04    0.0000E+00    0.0000E+00  setid=       0
 node=  2971 local x,y,z forces =   -4.7236E+04    0.0000E+00    0.0000E+00  setid=       0
 node=  2979 local x,y,z forces =    4.7236E+04    0.0000E+00    0.0000E+00  setid=       0
 node=  2980 local x,y,z forces =   -4.7281E+04    0.0000E+00    0.0000E+00  setid=       0
 node=  2988 local x,y,z forces =    4.7281E+04    0.0000E+00    0.0000E+00  setid=       0
 node=  2989 local x,y,z forces =   -4.7254E+04    0.0000E+00    0.0000E+00  setid=       0
 node=  2997 local x,y,z forces =    4.7254E+04    0.0000E+00    0.0000E+00  setid=       0
 node=  2998 local x,y,z forces =   -4.7215E+04    0.0000E+00    0.0000E+00  setid=       0
 node=  3006 local x,y,z forces =    4.7215E+04    0.0000E+00    0.0000E+00  setid=       0
 node=  3007 local x,y,z forces =   -4.7022E+04    0.0000E+00    0.0000E+00  setid=       0
 node=  3015 local x,y,z forces =    4.7022E+04    0.0000E+00    0.0000E+00  setid=       0
 node=  3016 local x,y,z forces =   -4.6893E+04    0.0000E+00    0.0000E+00  setid=       0
 node=  3024 local x,y,z forces =    4.6893E+04    0.0000E+00    0.0000E+00  setid=       0
 node=  3025 local x,y,z forces =   -4.4947E+04    0.0000E+00    0.0000E+00  setid=       0
 node=  3033 local x,y,z forces =    4.4947E+04    0.0000E+00    0.0000E+00  setid=       0
 node=  3034 local x,y,z forces =   -2.0860E+04    0.0000E+00    0.0000E+00  setid=       0
 node=  3042 local x,y,z forces =    2.0860E+04    0.0000E+00    0.0000E+00  setid=       0
             force resultants   =    1.9645E-10    4.5488E+01   -6.1406E+06
 output at time =   6.00000E-04
 node=     1 local x,y,z forces =   -1.9122E+04   -1.9688E+04   -4.0270E+04  setid=       0
 node=     1 local x,y,z moments=    0.0000E+00    0.0000E+00    0.0000E+00  setid=       0
 node=     2 local x,y,z forces =   -4.7231E+03   -3.7377E+04   -6.8443E+04  setid=       0
 node=     2 local x,y,z moments=    0.0000E+00    0.0000E+00    0.0000E+00  setid=       0
 node=     3 local x,y,z forces =   -4.8857E+03   -3.5697E+04   -6.2857E+04  setid=       0
 node=     3 local x,y,z moments=    0.0000E+00    0.0000E+00    0.0000E+00  setid=       0
 node=     4 local x,y,z forces =   -1.9646E+03   -3.5707E+04   -6.4131E+04  setid=       0
 node=     4 local x,y,z moments=    0.0000E+00    0.0000E+00    0.0000E+00  setid=       0
 node=     5 local x,y,z forces =    1.4552E-11   -3.5604E+04   -6.3190E+04  setid=       0
 node=     5 local x,y,z moments=    0.0000E+00    0.0000E+00    0.0000E+00  setid=       0
 node=     6 local x,y,z forces =    1.9646E+03   -3.5707E+04   -6.4131E+04  setid=       0
 node=     6 local x,y,z moments=    0.0000E+00    0.0000E+00    0.0000E+00  setid=       0
 node=     7 local x,y,z forces =    4.8857E+03   -3.5697E+04   -6.2857E+04  setid=       0
 node=     7 local x,y,z moments=    0.0000E+00    0.0000E+00    0.0000E+00  setid=       0
 node=     8 local x,y,z forces =    4.7231E+03   -3.7377E+04   -6.8443E+04  setid=       0
 node=     8 local x,y,z moments=    0.0000E+00    0.0000E+00    0.0000E+00  setid=       0
 node=     9 local x,y,z forces =    1.9122E+04   -1.9688E+04   -4.0270E+04  setid=       0
 node=     9 local x,y,z moments=    0.0000E+00    0.0000E+00    0.0000E+00  setid=       0
 node=    10 local x,y,z forces =   -3.5544E+04   -5.5998E+03   -6.6074E+04  setid=       0
 node=    10 local x,y,z moments=    0.0000E+00    0.0000E+00    0.0000E+00  setid=       0
 node=    11 local x,y,z forces =   -9.3848E+03   -1.1165E+04   -1.0777E+05  setid=       0
 node=    11 local x,y,z moments=    0.0000E+00    0.0000E+00    0.0000E+00  setid=       0
 node=    12 local x,y,z forces =   -9.7362E+03   -1.1326E+04   -9.6237E+04  setid=       0
 node=    12 local x,y,z moments=    0.0000E+00    0.0000E+00    0.0000E+00  setid=       0
 node=    13 local x,y,z forces =   -3.8940E+03   -1.1513E+04   -9.8593E+04  setid=       0
 node=    13 local x,y,z moments=    0.0000E+00    0.0000E+00    0.0000E+00  setid=       0
 node=    14 local x,y,z forces =    2.5466E-11   -1.1573E+04   -9.6613E+04  setid=       0
 node=    14 local x,y,z moments=    0.0000E+00    0.0000E+00    0.0000E+00  setid=       0
 node=    15 local x,y,z forces =    3.8940E+03   -1.1513E+04   -9.8593E+04  setid=       0
 node=    15 local x,y,z moments=    0.0000E+00    0.0000E+00    0.0000E+00  setid=       0
 node=    16 local x,y,z forces =    9.7362E+03   -1.1326E+04   -9.6237E+04  setid=       0
 node=    16 local x,y,z moments=    0.0000E+00    0.0000E+00    0.0000E+00  setid=       0
 node=    17 local x,y,z forces =    9.3848E+03   -1.1165E+04   -1.0777E+05  setid=       0
 node=    17 local x,y,z moments=    0.0000E+00    0.0000E+00    0.0000E+00  setid=       0
 node=    18 local x,y,z forces =    3.5544E+04   -5.5998E+03   -6.6074E+04  setid=       0
 node=    18 local x,y,z moments=    0.0000E+00    0.0000E+00    0.0000E+00  setid=       0
 node=    19 local x,y,z forces =   -3.3095E+04   -6.8422E+03   -5.9026E+04  setid=       0
 node=    19 local x,y,z moments=    0.0000E+00    0.0000E+00    0.0000E+00  setid=       0
 node=    20 local x,y,z forces =   -9.5031E+03   -1.3598E+04   -9.3470E+04  setid=       0
 node=    20 local x,y,z moments=    0.0000E+00    0.0000E+00    0.0000E+00  setid=       0
 node=    21 local x,y,z forces =   -9.8830E+03   -1.3669E+04   -8.1738E+04  setid=       0
 node=    21 local x,y,z moments=    0.0000E+00    0.0000E+00    0.0000E+00  setid=       0
 node=    22 local x,y,z forces =   -3.9303E+03   -1.3853E+04   -8.4136E+04  setid=       0
 node=    22 local x,y,z moments=    0.0000E+00    0.0000E+00    0.0000E+00  setid=       0
 node=    23 local x,y,z forces =   -3.6380E-12   -1.3924E+04   -8.2131E+04  setid=       0
 node=    23 local x,y,z moments=    0.0000E+00    0.0000E+00    0.0000E+00  setid=       0
 node=    24 local x,y,z forces =    3.9303E+03   -1.3853E+04   -8.4136E+04  setid=       0
 node=    24 local x,y,z moments=    0.0000E+00    0.0000E+00    0.0000E+00  setid=       0
 node=    25 local x,y,z forces =    9.8830E+03   -1.3669E+04   -8.1738E+04  setid=       0
 node=    25 local x,y,z moments=    0.0000E+00    0.0000E+00    0.0000E+00  setid=       0
 node=    26 local x,y,z forces =    9.5031E+03   -1.3598E+04   -9.3470E+04  setid=       0
 node=    26 local x,y,z moments=    0.0000E+00    0.0000E+00    0.0000E+00  setid=       0
 node=    27 local x,y,z forces =    3.3095E+04   -6.8422E+03   -5.9026E+04  setid=       0
 node=    27 local x,y,z moments=    0.0000E+00    0.0000E+00    0.0000E+00  setid=       0
 node=    28 local x,y,z forces =   -3.2909E+04   -4.3264E+03   -5.9616E+04  setid=       0
 node=    28 local x,y,z moments=    0.0000E+00    0.0000E+00    0.0000E+00  setid=       0
 node=    29 local x,y,z forces =   -9.6804E+03   -8.5350E+03   -9.4433E+04  setid=       0
 node=    29 local x,y,z moments=    0.0000E+00    0.0000E+00    0.0000E+00  setid=       0
 node=    30 local x,y,z forces =   -1.0136E+04   -8.4575E+03   -8.2699E+04  setid=       0
 node=    30 local x,y,z moments=    0.0000E+00    0.0000E+00    0.0000E+00  setid=       0
 node=    31 local x,y,z forces =   -4.0500E+03   -8.5147E+03   -8.5290E+04  setid=       0
 node=    31 local x,y,z moments=    0.0000E+00    0.0000E+00    0.0000E+00  setid=       0
 node=    32 local x,y,z forces =   -2.1828E-11   -8.5463E+03   -8.3324E+04  setid=       0
 node=    32 local x,y,z moments=    0.0000E+00    0.0000E+00    0.0000E+00  setid=       0
 node=    33 local x,y,z forces =    4.0500E+03   -8.5147E+03   -8.5290E+04  setid=       0
 node=    33 local x,y,z moments=    0.0000E+00    0.0000E+00    0.0000E+00  setid=       0
 node=    34 local x,y,z forces =    1.0136E+04   -8.4575E+03   -8.2699E+04  setid=       0
 node=    34 local x,y,z moments=    0.0000E+00    0.0000E+00    0.0000E+00  setid=       0
 node=    35 local x,y,z forces =    9.6804E+03   -8.5350E+03   -9.4433E+04  setid=       0
 node=    35 local x,y,z moments=    0.0000E+00    0.0000E+00    0.0000E+00  setid=       0
 node=    36 local x,y,z forces =    3.2909E+04   -4.3264E+03   -5.9616E+04  setid=       0
[...]
 node=    24 local x,y,z forces =    9.7739E+04   -6.0855E+04   -2.1137E+06  setid=       0
 node=    24 local x,y,z moments=    0.0000E+00    0.0000E+00    0.0000E+00  setid=       0
 node=    25 local x,y,z forces =    2.4116E+05   -3.7394E+04   -2.0705E+06  setid=       0
 node=    25 local x,y,z moments=    0.0000E+00    0.0000E+00    0.0000E+00  setid=       0
 node=    26 local x,y,z forces =    2.2358E+05    4.8396E+04   -2.3463E+06  setid=       0
 node=    26 local x,y,z moments=    0.0000E+00    0.0000E+00    0.0000E+00  setid=       0
 node=    27 local x,y,z forces =    8.2282E+05    5.8151E+04   -1.4924E+06  setid=       0
 node=    27 local x,y,z moments=    0.0000E+00    0.0000E+00    0.0000E+00  setid=       0
 node=    28 local x,y,z forces =   -6.4615E+05    1.3423E+05   -1.1793E+06  setid=       0
 node=    28 local x,y,z moments=    0.0000E+00    0.0000E+00    0.0000E+00  setid=       0
 node=    29 local x,y,z forces =   -1.8119E+05    2.0498E+05   -1.8564E+06  setid=       0
 node=    29 local x,y,z moments=    0.0000E+00    0.0000E+00    0.0000E+00  setid=       0
 node=    30 local x,y,z forces =   -1.9355E+05    1.2513E+05   -1.6427E+06  setid=       0
 node=    30 local x,y,z moments=    0.0000E+00    0.0000E+00    0.0000E+00  setid=       0
 node=    31 local x,y,z forces =   -7.7720E+04    1.0292E+05   -1.6799E+06  setid=       0
 node=    31 local x,y,z moments=    0.0000E+00    0.0000E+00    0.0000E+00  setid=       0
 node=    32 local x,y,z forces =   -2.7940E-09    9.1788E+04   -1.6565E+06  setid=       0
 node=    32 local x,y,z moments=    0.0000E+00    0.0000E+00    0.0000E+00  setid=       0
 node=    33 local x,y,z forces =    7.7720E+04    1.0292E+05   -1.6799E+06  setid=       0
 node=    33 local x,y,z moments=    0.0000E+00    0.0000E+00    0.0000E+00  setid=       0
 node=    34 local x,y,z forces =    1.9355E+05    1.2513E+05   -1.6427E+06  setid=       0
 node=    34 local x,y,z moments=    0.0000E+00    0.0000E+00    0.0000E+00  setid=       0
 node=    35 local x,y,z forces =    1.8119E+05    2.0498E+05   -1.8564E+06  setid=       0
 node=    35 local x,y,z moments=    0.0000E+00    0.0000E+00    0.0000E+00  setid=       0
 node=    36 local x,y,z forces =    6.4615E+05    1.3423E+05   -1.1793E+06  setid=       0
 node=    36 local x,y,z moments=    0.0000E+00    0.0000E+00    0.0000E+00  setid=       0
 node=    37 local x,y,z forces =   -4.6445E+05    1.6302E+05   -8.3809E+05  setid=       0
 node=    37 local x,y,z moments=    0.0000E+00    0.0000E+00    0.0000E+00  setid=       0
 node=    38 local x,y,z forces =   -1.3289E+05    2.6196E+05   -1.3109E+06  setid=       0
 node=    38 local x,y,z moments=    0.0000E+00    0.0000E+00    0.0000E+00  setid=       0
 node=    39 local x,y,z forces =   -1.4247E+05    1.8223E+05   -1.1538E+06  setid=       0
 node=    39 local x,y,z moments=    0.0000E+00    0.0000E+00    0.0000E+00  setid=       0
 node=    40 local x,y,z forces =   -5.7317E+04    1.5920E+05   -1.1819E+06  setid=       0
 node=    40 local x,y,z moments=    0.0000E+00    0.0000E+00    0.0000E+00  setid=       0
 node=    41 local x,y,z forces =   -2.4447E-09    1.4862E+05   -1.1641E+06  setid=       0
 node=    41 local x,y,z moments=    0.0000E+00    0.0000E+00    0.0000E+00  setid=       0
 node=    42 local x,y,z forces =    5.7317E+04    1.5920E+05   -1.1819E+06  setid=       0
 node=    42 local x,y,z moments=    0.0000E+00    0.0000E+00    0.0000E+00  setid=       0
 node=    43 local x,y,z forces =    1.4247E+05    1.8223E+05   -1.1538E+06  setid=       0
 node=    43 local x,y,z moments=    0.0000E+00    0.0000E+00    0.0000E+00  setid=       0
 node=    44 local x,y,z forces =    1.3289E+05    2.6196E+05   -1.3109E+06  setid=       0
 node=    44 local x,y,z moments=    0.0000E+00    0.0000E+00    0.0000E+00  setid=       0
 node=    45 local x,y,z forces =    4.6445E+05    1.6302E+05   -8.3809E+05  setid=       0
 node=    45 local x,y,z moments=    0.0000E+00    0.0000E+00    0.0000E+00  setid=       0
 node=    46 local x,y,z forces =   -2.8416E+05    1.8721E+05   -5.1095E+05  setid=       0
 node=    46 local x,y,z moments=    0.0000E+00    0.0000E+00    0.0000E+00  setid=       0
 node=    47 local x,y,z forces =   -8.2299E+04    3.1181E+05   -7.9761E+05  setid=       0
 node=    47 local x,y,z moments=    0.0000E+00    0.0000E+00    0.0000E+00  setid=       0
 node=    48 local x,y,z forces =   -8.8966E+04    2.3439E+05   -7.0002E+05  setid=       0
 node=    48 local x,y,z moments=    0.0000E+00    0.0000E+00    0.0000E+00  setid=       0
 node=    49 local x,y,z forces =   -3.5826E+04    2.1070E+05   -7.1898E+05  setid=       0
 node=    49 local x,y,z moments=    0.0000E+00    0.0000E+00    0.0000E+00  setid=       0
 node=    50 local x,y,z forces =   -1.3388E-09    2.0092E+05   -7.0713E+05  setid=       0
 node=    50 local x,y,z moments=    0.0000E+00    0.0000E+00    0.0000E+00  setid=       0
 node=    51 local x,y,z forces =    3.5826E+04    2.1070E+05   -7.1898E+05  setid=       0
 node=    51 local x,y,z moments=    0.0000E+00    0.0000E+00    0.0000E+00  setid=       0
 node=    52 local x,y,z forces =    8.8966E+04    2.3439E+05   -7.0002E+05  setid=       0
 node=    52 local x,y,z moments=    0.0000E+00    0.0000E+00    0.0000E+00  setid=       0
 node=    53 local x,y,z forces =    8.2299E+04    3.1181E+05   -7.9761E+05  setid=       0
 node=    53 local x,y,z moments=    0.0000E+00    0.0000E+00    0.0000E+00  setid=       0
 node=    54 local x,y,z forces =    2.8416E+05    1.8721E+05   -5.1095E+05  setid=       0
 node=    54 local x,y,z moments=    0.0000E+00    0.0000E+00    0.0000E+00  setid=       0
 node=    55 local x,y,z forces =   -1.0239E+05    1.9145E+05   -1.8084E+05  setid=       0
 node=    55 local x,y,z moments=    0.0000E+00    0.0000E+00    0.0000E+00  setid=       0
 node=    56 local x,y,z forces =   -2.9927E+04    3.2164E+05   -2.7802E+05  setid=       0
 node=    56 local x,y,z moments=    0.0000E+00    0.0000E+00    0.0000E+00  setid=       0
 node=    57 local x,y,z forces =   -3.4045E+04    2.4638E+05   -2.3903E+05  setid=       0
 node=    57 local x,y,z moments=    0.0000E+00    0.0000E+00    0.0000E+00  setid=       0
 node=    58 local x,y,z forces =   -1.3568E+04    2.2145E+05   -2.4817E+05  setid=       0
 node=    58 local x,y,z moments=    0.0000E+00    0.0000E+00    0.0000E+00  setid=       0
 node=    59 local x,y,z forces =   -9.4042E-10    2.1210E+05   -2.4189E+05  setid=       0
 node=    59 local x,y,z moments=    0.0000E+00    0.0000E+00    0.0000E+00  setid=       0
 node=    60 local x,y,z forces =    1.3568E+04    2.2145E+05   -2.4817E+05  setid=       0
 node=    60 local x,y,z moments=    0.0000E+00    0.0000E+00    0.0000E+00  setid=       0
 node=    61 local x,y,z forces =    3.4045E+04    2.4638E+05   -2.3903E+05  setid=       0
 node=    61 local x,y,z moments=    0.0000E+00    0.0000E+00    0.0000E+00  setid=       0
 node=    62 local x,y,z forces =    2.9927E+04    3.2164E+05   -2.7802E+05  setid=       0
 node=    62 local x,y,z moments=    0.0000E+00    0.0000E+00    0.0000E+00  setid=       0
 node=    63 local x,y,z forces =    1.0239E+05    1.9145E+05   -1.8084E+05  setid=       0
 node=    63 local x,y,z moments=    0.0000E+00    0.0000E+00    0.0000E+00  setid=       0
 node=    64 local x,y,z forces =    7.9692E+04    1.8749E+05    1.4681E+05  setid=       0
 node=    64 local x,y,z moments=    0.0000E+00    0.0000E+00    0.0000E+00  setid=       0
 node=    65 local x,y,z forces =    2.3045E+04    3.1587E+05    2.3846E+05  setid=       0
 node=    65 local x,y,z moments=    0.0000E+00    0.0000E+00    0.0000E+00  setid=       0
 node=    66 local x,y,z forces =    2.1103E+04    2.4364E+05    2.1967E+05  setid=       0
 node=    66 local x,y,z moments=    0.0000E+00    0.0000E+00    0.0000E+00  setid=       0
 node=    67 local x,y,z forces =    8.8624E+03    2.1751E+05    2.2020E+05  setid=       0
 node=    67 local x,y,z moments=    0.0000E+00    0.0000E+00    0.0000E+00  setid=       0
 node=    68 local x,y,z forces =   -1.8044E-09    2.0863E+05    2.2105E+05  setid=       0
 node=    68 local x,y,z moments=    0.0000E+00    0.0000E+00    0.0000E+00  setid=       0
 node=    69 local x,y,z forces =   -8.8624E+03    2.1751E+05    2.2020E+05  setid=       0
 node=    69 local x,y,z moments=    0.0000E+00    0.0000E+00    0.0000E+00  setid=       0
 node=    70 local x,y,z forces =   -2.1103E+04    2.4364E+05    2.1967E+05  setid=       0
 node=    70 local x,y,z moments=    0.0000E+00    0.0000E+00    0.0000E+00  setid=       0
 node=    71 local x,y,z forces =   -2.3045E+04    3.1587E+05    2.3846E+05  setid=       0
 node=    71 local x,y,z moments=    0.0000E+00    0.0000E+00    0.0000E+00  setid=       0
 node=    72 local x,y,z forces =   -7.9692E+04    1.8749E+05    1.4681E+05  setid=       0
 node=    72 local x,y,z moments=    0.0000E+00    0.0000E+00    0.0000E+00  setid=       0
 node=    73 local x,y,z forces =    2.6191E+05    1.6686E+05    4.6611E+05  setid=       0
 node=    73 local x,y,z moments=    0.0000E+00    0.0000E+00    0.0000E+00  setid=       0
 node=    74 local x,y,z forces =    7.5513E+04    2.7701E+05    7.4162E+05  setid=       0
 node=    74 local x,y,z moments=    0.0000E+00    0.0000E+00    0.0000E+00  setid=       0
 node=    75 local x,y,z forces =    7.5262E+04    2.0782E+05    6.6609E+05  setid=       0
 node=    75 local x,y,z moments=    0.0000E+00    0.0000E+00    0.0000E+00  setid=       0
 node=    76 local x,y,z forces =    3.0921E+04    1.8015E+05    6.7554E+05  setid=       0
 node=    76 local x,y,z moments=    0.0000E+00    0.0000E+00    0.0000E+00  setid=       0
 node=    77 local x,y,z forces =   -1.5716E-09    1.7148E+05    6.7107E+05  setid=       0
 node=    77 local x,y,z moments=    0.0000E+00    0.0000E+00    0.0000E+00  setid=       0
 node=    78 local x,y,z forces =   -3.0921E+04    1.8015E+05    6.7554E+05  setid=       0
 node=    78 local x,y,z moments=    0.0000E+00    0.0000E+00    0.0000E+00  setid=       0
 node=    79 local x,y,z forces =   -7.5262E+04    2.0782E+05    6.6609E+05  setid=       0
 node=    79 local x,y,z moments=    0.0000E+00    0.0000E+00    0.0000E+00  setid=       0
 node=    80 local x,y,z forces =   -7.5513E+04    2.7701E+05    7.4162E+05  setid=       0
 node=    80 local x,y,z moments=    0.0000E+00    0.0000E+00    0.0000E+00  setid=       0
 node=    81 local x,y,z forces =   -2.6191E+05    1.6686E+05    4.6611E+05  setid=       0
 node=    81 local x,y,z moments=    0.0000E+00    0.0000E+00    0.0000E+00  setid=       0
 node=    82 local x,y,z forces =    4.4551E+05    1.3732E+05    7.9420E+05  setid=       0
 node=    82 local x,y,z moments=    0.0000E+00    0.0000E+00    0.0000E+00  setid=       0
 node=    83 local x,y,z forces =    1.2698E+05    2.2155E+05    1.2691E+06  setid=       0
 node=    83 local x,y,z moments=    0.0000E+00    0.0000E+00    0.0000E+00  setid=       0
 node=    84 local x,y,z forces =    1.2776E+05    1.5679E+05    1.1411E+06  setid=       0
 node=    84 local x,y,z moments=    0.0000E+00    0.0000E+00    0.0000E+00  setid=       0
 node=    85 local x,y,z forces =    5.2264E+04    1.2774E+05    1.1596E+06  setid=       0
 node=    85 local x,y,z moments=    0.0000E+00    0.0000E+00    0.0000E+00  setid=       0
 node=    86 local x,y,z forces =   -4.6566E-10    1.1930E+05    1.1504E+06  setid=       0
 node=    86 local x,y,z moments=    0.0000E+00    0.0000E+00    0.0000E+00  setid=       0
 node=    87 local x,y,z forces =   -5.2264E+04    1.2774E+05    1.1596E+06  setid=       0
 node=    87 local x,y,z moments=    0.0000E+00    0.0000E+00    0.0000E+00  setid=       0
 node=    88 local x,y,z forces =   -1.2776E+05    1.5679E+05    1.1411E+06  setid=       0
 node=    88 local x,y,z moments=    0.0000E+00    0.0000E+00    0.0000E+00  setid=       0
 node=    89 local x,y,z forces =   -1.2698E+05    2.2155E+05    1.2691E+06  setid=       0
 node=    89 local x,y,z moments=    0.0000E+00    0.0000E+00    0.0000E+00  setid=       0
 node=    90 local x,y,z forces =   -4.4551E+05    1.3732E+05    7.9420E+05  setid=       0
 node=    90 local x,y,z moments=    0.0000E+00    0.0000E+00    0.0000E+00  setid=       0
 node=    91 local x,y,z forces =    6.2689E+05    7.7595E+04    1.0892E+06  setid=       0
 node=    91 local x,y,z moments=    0.0000E+00    0.0000E+00    0.0000E+00  setid=       0
 node=    92 local x,y,z forces =    1.7489E+05    1.0417E+05    1.7344E+06  setid=       0
 node=    92 local x,y,z moments=    0.0000E+00    0.0000E+00    0.0000E+00  setid=       0
 node=    93 local x,y,z forces =    1.7732E+05    3.9926E+04    1.5506E+06  setid=       0
 node=    93 local x,y,z moments=    0.0000E+00    0.0000E+00    0.0000E+00  setid=       0
 node=    94 local x,y,z forces =    7.3676E+04    8.5708E+03    1.5751E+06  setid=       0
 node=    94 local x,y,z moments=    0.0000E+00    0.0000E+00    0.0000E+00  setid=       0
 node=    95 local x,y,z forces =   -5.8208E-10    5.5766E+02    1.5616E+06  setid=       0
 node=    95 local x,y,z moments=    0.0000E+00    0.0000E+00    0.0000E+00  setid=       0
 node=    96 local x,y,z forces =   -7.3676E+04    8.5708E+03    1.5751E+06  setid=       0
 node=    96 local x,y,z moments=    0.0000E+00    0.0000E+00    0.0000E+00  setid=       0
 node=    97 local x,y,z forces =   -1.7732E+05    3.9926E+04    1.5506E+06  setid=       0
 node=    97 local x,y,z moments=    0.0000E+00    0.0000E+00    0.0000E+00  setid=       0
 node=    98 local x,y,z forces =   -1.7489E+05    1.0417E+05    1.7344E+06  setid=       0
 node=    98 local x,y,z moments=    0.0000E+00    0.0000E+00    0.0000E+00  setid=       0
 node=    99 local x,y,z forces =   -6.2689E+05    7.7595E+04    1.0892E+06  setid=       0
 node=    99 local x,y,z moments=    0.0000E+00    0.0000E+00    0.0000E+00  setid=       0
 node=   100 local x,y,z forces =    8.3030E+05    3.1975E+04    1.4767E+06  setid=       0
 node=   100 local x,y,z moments=    0.0000E+00    0.0000E+00    0.0000E+00  setid=       0
 node=   101 local x,y,z forces =    2.2933E+05    2.6526E+04    2.4113E+06  setid=       0
 node=   101 local x,y,z moments=    0.0000E+00    0.0000E+00    0.0000E+00  setid=       0
 node=   102 local x,y,z forces =    2.3529E+05   -1.8079E+04    2.2103E+06  setid=       0
 node=   102 local x,y,z moments=    0.0000E+00    0.0000E+00    0.0000E+00  setid=       0
 node=   103 local x,y,z forces =    9.8910E+04   -3.9947E+04    2.2638E+06  setid=       0
 node=   103 local x,y,z moments=    0.0000E+00    0.0000E+00    0.0000E+00  setid=       0
 node=   104 local x,y,z forces =   -1.2806E-09   -4.4624E+04    2.2536E+06  setid=       0
 node=   104 local x,y,z moments=    0.0000E+00    0.0000E+00    0.0000E+00  setid=       0
 node=   105 local x,y,z forces =   -9.8910E+04   -3.9947E+04    2.2638E+06  setid=       0
 node=   105 local x,y,z moments=    0.0000E+00    0.0000E+00    0.0000E+00  setid=       0
 node=   106 local x,y,z forces =   -2.3529E+05   -1.8079E+04    2.2103E+06  setid=       0
 node=   106 local x,y,z moments=    0.0000E+00    0.0000E+00    0.0000E+00  setid=       0
 node=   107 local x,y,z forces =   -2.2933E+05    2.6526E+04    2.4113E+06  setid=       0
 node=   107 local x,y,z moments=    0.0000E+00    0.0000E+00    0.0000E+00  setid=       0
 node=   108 local x,y,z forces =   -8.3030E+05    3.1975E+04    1.4767E+06  setid=       0
 node=   108 local x,y,z moments=    0.0000E+00    0.0000E+00    0.0000E+00  setid=       0
 node=   109 local x,y,z forces =    4.7418E+05   -4.2345E+05    8.8703E+05  setid=       0
 node=   109 local x,y,z moments=    0.0000E+00    0.0000E+00    0.0000E+00  setid=       0
 node=   110 local x,y,z forces =    1.2842E+05   -8.1484E+05    1.4994E+06  setid=       0
 node=   110 local x,y,z moments=    0.0000E+00    0.0000E+00    0.0000E+00  setid=       0
 node=   111 local x,y,z forces =    1.3425E+05   -7.9920E+05    1.4215E+06  setid=       0
 node=   111 local x,y,z moments=    0.0000E+00    0.0000E+00    0.0000E+00  setid=       0
 node=   112 local x,y,z forces =    5.6406E+04   -8.1857E+05    1.4663E+06  setid=       0
 node=   112 local x,y,z moments=    0.0000E+00    0.0000E+00    0.0000E+00  setid=       0
 node=   113 local x,y,z forces =   -1.1642E-10   -8.2102E+05    1.4658E+06  setid=       0
 node=   113 local x,y,z moments=    0.0000E+00    0.0000E+00    0.0000E+00  setid=       0
 node=   114 local x,y,z forces =   -5.6406E+04   -8.1857E+05    1.4663E+06  setid=       0
 node=   114 local x,y,z moments=    0.0000E+00    0.0000E+00    0.0000E+00  setid=       0
 node=   115 local x,y,z forces =   -1.3425E+05   -7.9920E+05    1.4215E+06  setid=       0
 node=   115 local x,y,z moments=    0.0000E+00    0.0000E+00    0.0000E+00  setid=       0
 node=   116 local x,y,z forces =   -1.2842E+05   -8.1484E+05    1.4994E+06  setid=       0
 node=   116 local x,y,z moments=    0.0000E+00    0.0000E+00    0.0000E+00  setid=       0
 node=   117 local x,y,z forces =   -4.7418E+05   -4.2345E+05    8.8703E+05  setid=       0
 node=   117 local x,y,z moments=    0.0000E+00    0.0000E+00    0.0000E+00  setid=       0
 node=  2926 local x,y,z forces =    7.4561E+05    0.0000E+00    0.0000E+00  setid=       0
 node=  2934 local x,y,z forces =   -7.4561E+05    0.0000E+00    0.0000E+00  setid=       0
 node=  2935 local x,y,z forces =    1.3744E+06    0.0000E+00    0.0000E+00  setid=       0
 node=  2943 local x,y,z forces =   -1.3744E+06    0.0000E+00    0.0000E+00  setid=       0
 node=  2944 local x,y,z forces =    1.0730E+06    0.0000E+00    0.0000E+00  setid=       0
 node=  2952 local x,y,z forces =   -1.0730E+06    0.0000E+00    0.0000E+00  setid=       0
 node=  2953 local x,y,z forces =    7.4144E+05    0.0000E+00    0.0000E+00  setid=       0
 node=  2961 local x,y,z forces =   -7.4144E+05    0.0000E+00    0.0000E+00  setid=       0
 node=  2962 local x,y,z forces =    4.1813E+05    0.0000E+00    0.0000E+00  setid=       0
 node=  2970 local x,y,z forces =   -4.1813E+05    0.0000E+00    0.0000E+00  setid=       0
 node=  2971 local x,y,z forces =    9.5415E+04    0.0000E+00    0.0000E+00  setid=       0
 node=  2979 local x,y,z forces =   -9.5415E+04    0.0000E+00    0.0000E+00  setid=       0
 node=  2980 local x,y,z forces =   -2.2485E+05    0.0000E+00    0.0000E+00  setid=       0
 node=  2988 local x,y,z forces =    2.2485E+05    0.0000E+00    0.0000E+00  setid=       0
 node=  2989 local x,y,z forces =   -5.4355E+05    0.0000E+00    0.0000E+00  setid=       0
 node=  2997 local x,y,z forces =    5.4355E+05    0.0000E+00    0.0000E+00  setid=       0
 node=  2998 local x,y,z forces =   -8.6136E+05    0.0000E+00    0.0000E+00  setid=       0
 node=  3006 local x,y,z forces =    8.6136E+05    0.0000E+00    0.0000E+00  setid=       0
 node=  3007 local x,y,z forces =   -1.1767E+06    0.0000E+00    0.0000E+00  setid=       0
 node=  3015 local x,y,z forces =    1.1767E+06    0.0000E+00    0.0000E+00  setid=       0
 node=  3016 local x,y,z forces =   -1.4964E+06    0.0000E+00    0.0000E+00  setid=       0
 node=  3024 local x,y,z forces =    1.4964E+06    0.0000E+00    0.0000E+00  setid=       0
 node=  3025 local x,y,z forces =   -1.7803E+06    0.0000E+00    0.0000E+00  setid=       0
 node=  3033 local x,y,z forces =    1.7803E+06    0.0000E+00    0.0000E+00  setid=       0
 node=  3034 local x,y,z forces =   -9.4515E+05    0.0000E+00    0.0000E+00  setid=       0
 node=  3042 local x,y,z forces =    9.4515E+05    0.0000E+00    0.0000E+00  setid=       0
             force resultants   =    9.3132E-09   -1.9970E+06   -2.9160E+07
