 400x600                                                                 
                         ls-dyna smp.123264 d           date 01/12/2018

{BEGIN LEGEND}
 Entity #        Title
        0     bottom                                                                
        0     top                                                                   
        3     middle                                                                
{END LEGEND}

 single point constraint forces

 output at time =   0.00000E+00
 node=     1 local x,y,z forces =    0.0000E+00    0.0000E+00    0.0000E+00  setid=       0
 node=     2 local x,y,z forces =    0.0000E+00    0.0000E+00    0.0000E+00  setid=       0
 node=     3 local x,y,z forces =    0.0000E+00    0.0000E+00    0.0000E+00  setid=       0
 node=     4 local x,y,z forces =    0.0000E+00    0.0000E+00    0.0000E+00  setid=       0
 node=     5 local x,y,z forces =    0.0000E+00    0.0000E+00    0.0000E+00  setid=       0
 node=     6 local x,y,z forces =    0.0000E+00    0.0000E+00    0.0000E+00  setid=       0
 node=     7 local x,y,z forces =    0.0000E+00    0.0000E+00    0.0000E+00  setid=       0
 node=     8 local x,y,z forces =    0.0000E+00    0.0000E+00    0.0000E+00  setid=       0
 node=     9 local x,y,z forces =    0.0000E+00    0.0000E+00    0.0000E+00  setid=       0
 node=    10 local x,y,z forces =    0.0000E+00    0.0000E+00    0.0000E+00  setid=       0
 node=    11 local x,y,z forces =    0.0000E+00    0.0000E+00    0.0000E+00  setid=       0
 node=    12 local x,y,z forces =    0.0000E+00    0.0000E+00    0.0000E+00  setid=       0
 node=    13 local x,y,z forces =    0.0000E+00    0.0000E+00    0.0000E+00  setid=       0
 node=    14 local x,y,z forces =    0.0000E+00    0.0000E+00    0.0000E+00  setid=       0
 node=    15 local x,y,z forces =    0.0000E+00    0.0000E+00    0.0000E+00  setid=       0
 node=    16 local x,y,z forces =    0.0000E+00    0.0000E+00    0.0000E+00  setid=       0
 node=    17 local x,y,z forces =    0.0000E+00    0.0000E+00    0.0000E+00  setid=       0
 node=    18 local x,y,z forces =    0.0000E+00    0.0000E+00    0.0000E+00  setid=       0
 node=    19 local x,y,z forces =    0.0000E+00    0.0000E+00    0.0000E+00  setid=       0
 node=    20 local x,y,z forces =    0.0000E+00    0.0000E+00    0.0000E+00  setid=       0
 node=    21 local x,y,z forces =    0.0000E+00    0.0000E+00    0.0000E+00  setid=       0
 node=    22 local x,y,z forces =    0.0000E+00    0.0000E+00    0.0000E+00  setid=       0
 node=    23 local x,y,z forces =    0.0000E+00    0.0000E+00    0.0000E+00  setid=       0
 node=    24 local x,y,z forces =    0.0000E+00    0.0000E+00    0.0000E+00  setid=       0
 node=    25 local x,y,z forces =    0.0000E+00    0.0000E+00    0.0000E+00  setid=       0
 node=    26 local x,y,z forces =    0.0000E+00    0.0000E+00    0.0000E+00  setid=       0
 node=    27 local x,y,z forces =    0.0000E+00    0.0000E+00    0.0000E+00  setid=       0
 node=    28 local x,y,z forces =    0.0000E+00    0.0000E+00    0.0000E+00  setid=       0
 node=    29 local x,y,z forces =    0.0000E+00    0.0000E+00    0.0000E+00  setid=       0
 node=    30 local x,y,z forces =    0.0000E+00    0.0000E+00    0.0000E+00  setid=       0
 node=    31 local x,y,z forces =    0.0000E+00    0.0000E+00    0.0000E+00  setid=       0
 node=    32 local x,y,z forces =    0.0000E+00    0.0000E+00    0.0000E+00  setid=       0
 node=    33 local x,y,z forces =    0.0000E+00    0.0000E+00    0.0000E+00  setid=       0
 node=    34 local x,y,z forces =    0.0000E+00    0.0000E+00    0.0000E+00  setid=       0
 node=    35 local x,y,z forces =    0.0000E+00    0.0000E+00    0.0000E+00  setid=       0
 node=    36 local x,y,z forces =    0.0000E+00    0.0000E+00    0.0000E+00  setid=       0
 node=    37 local x,y,z forces =    0.0000E+00    0.0000E+00    0.0000E+00  setid=       0
 node=    38 local x,y,z forces =    0.0000E+00    0.0000E+00    0.0000E+00  setid=       0
 node=    39 local x,y,z forces =    0.0000E+00    0.0000E+00    0.0000E+00  setid=       0
 node=    40 local x,y,z forces =    0.0000E+00    0.0000E+00    0.0000E+00  setid=       0
 node=    41 local x,y,z forces =    0.0000E+00    0.0000E+00    0.0000E+00  setid=       0
 node=    42 local x,y,z forces =    0.0000E+00    0.0000E+00    0.0000E+00  setid=       0
 node=    43 local x,y,z forces =    0.0000E+00    0.0000E+00    0.0000E+00  setid=       0
 node=    44 local x,y,z forces =    0.0000E+00    0.0000E+00    0.0000E+00  setid=       0
 node=    45 local x,y,z forces =    0.0000E+00    0.0000E+00    0.0000E+00  setid=       0
 node=    46 local x,y,z forces =    0.0000E+00    0.0000E+00    0.0000E+00  setid=       0
 node=    47 local x,y,z forces =    0.0000E+00    0.0000E+00    0.0000E+00  setid=       0
 node=    48 local x,y,z forces =    0.0000E+00    0.0000E+00    0.0000E+00  setid=       0
 node=    49 local x,y,z forces =    0.0000E+00    0.0000E+00    0.0000E+00  setid=       0
 node=    50 local x,y,z forces =    0.0000E+00    0.0000E+00    0.0000E+00  setid=       0
 node=    51 local x,y,z forces =    0.0000E+00    0.0000E+00    0.0000E+00  setid=       0
 node=    52 local x,y,z forces =    0.0000E+00    0.0000E+00    0.0000E+00  setid=       0
 node=    53 local x,y,z forces =    0.0000E+00    0.0000E+00    0.0000E+00  setid=       0
 node=    54 local x,y,z forces =    0.0000E+00    0.0000E+00    0.0000E+00  setid=       0
 node=    55 local x,y,z forces =    0.0000E+00    0.0000E+00    0.0000E+00  setid=       0
 node=    56 local x,y,z forces =    0.0000E+00    0.0000E+00    0.0000E+00  setid=       0
 node=    57 local x,y,z forces =    0.0000E+00    0.0000E+00    0.0000E+00  setid=       0
 node=    58 local x,y,z forces =    0.0000E+00    0.0000E+00    0.0000E+00  setid=       0
 node=    59 local x,y,z forces =    0.0000E+00    0.0000E+00    0.0000E+00  setid=       0
 node=    60 local x,y,z forces =    0.0000E+00    0.0000E+00    0.0000E+00  setid=       0
 node=    61 local x,y,z forces =    0.0000E+00    0.0000E+00    0.0000E+00  setid=       0
 node=    62 local x,y,z forces =    0.0000E+00    0.0000E+00    0.0000E+00  setid=       0
 node=    63 local x,y,z forces =    0.0000E+00    0.0000E+00    0.0000E+00  setid=       0
 node=    64 local x,y,z forces =    0.0000E+00    0.0000E+00    0.0000E+00  setid=       0
 node=    65 local x,y,z forces =    0.0000E+00    0.0000E+00    0.0000E+00  setid=       0
 node=    66 local x,y,z forces =    0.0000E+00    0.0000E+00    0.0000E+00  setid=       0
 node=    67 local x,y,z forces =    0.0000E+00    0.0000E+00    0.0000E+00  setid=       0
 node=    68 local x,y,z forces =    0.0000E+00    0.0000E+00    0.0000E+00  setid=       0
 node=    69 local x,y,z forces =    0.0000E+00    0.0000E+00    0.0000E+00  setid=       0
 node=    70 local x,y,z forces =    0.0000E+00    0.0000E+00    0.0000E+00  setid=       0
 node=    71 local x,y,z forces =    0.0000E+00    0.0000E+00    0.0000E+00  setid=       0
 node=    72 local x,y,z forces =    0.0000E+00    0.0000E+00    0.0000E+00  setid=       0
 node=    73 local x,y,z forces =    0.0000E+00    0.0000E+00    0.0000E+00  setid=       0
 node=    74 local x,y,z forces =    0.0000E+00    0.0000E+00    0.0000E+00  setid=       0
 node=    75 local x,y,z forces =    0.0000E+00    0.0000E+00    0.0000E+00  setid=       0
 node=    76 local x,y,z forces =    0.0000E+00    0.0000E+00    0.0000E+00  setid=       0
 node=    77 local x,y,z forces =    0.0000E+00    0.0000E+00    0.0000E+00  setid=       0
 node=    78 local x,y,z forces =    0.0000E+00    0.0000E+00    0.0000E+00  setid=       0
 node=    79 local x,y,z forces =    0.0000E+00    0.0000E+00    0.0000E+00  setid=       0
 node=    80 local x,y,z forces =    0.0000E+00    0.0000E+00    0.0000E+00  setid=       0
 node=    81 local x,y,z forces =    0.0000E+00    0.0000E+00    0.0000E+00  setid=       0
 node=    82 local x,y,z forces =    0.0000E+00    0.0000E+00    0.0000E+00  setid=       0
 node=    83 local x,y,z forces =    0.0000E+00    0.0000E+00    0.0000E+00  setid=       0
 node=    84 local x,y,z forces =    0.0000E+00    0.0000E+00    0.0000E+00  setid=       0
 node=    85 local x,y,z forces =    0.0000E+00    0.0000E+00    0.0000E+00  setid=       0
 node=    86 local x,y,z forces =    0.0000E+00    0.0000E+00    0.0000E+00  setid=       0
 node=    87 local x,y,z forces =    0.0000E+00    0.0000E+00    0.0000E+00  setid=       0
 node=    88 local x,y,z forces =    0.0000E+00    0.0000E+00    0.0000E+00  setid=       0
 node=    89 local x,y,z forces =    0.0000E+00    0.0000E+00    0.0000E+00  setid=       0
 node=    90 local x,y,z forces =    0.0000E+00    0.0000E+00    0.0000E+00  setid=       0
 node=    91 local x,y,z forces =    0.0000E+00    0.0000E+00    0.0000E+00  setid=       0
 node=  2227 local x,y,z forces =    0.0000E+00    0.0000E+00    0.0000E+00  setid=       3
 node=  2233 local x,y,z forces =    0.0000E+00    0.0000E+00    0.0000E+00  setid=       3
 node=  2318 local x,y,z forces =    0.0000E+00    0.0000E+00    0.0000E+00  setid=       3
 node=  2324 local x,y,z forces =    0.0000E+00    0.0000E+00    0.0000E+00  setid=       3
 node=  2409 local x,y,z forces =    0.0000E+00    0.0000E+00    0.0000E+00  setid=       3
 node=  2415 local x,y,z forces =    0.0000E+00    0.0000E+00    0.0000E+00  setid=       3
 node=  4551 local x,y,z forces =    0.0000E+00    0.0000E+00    0.0000E+00  setid=       0
 node=  4552 local x,y,z forces =    0.0000E+00    0.0000E+00    0.0000E+00  setid=       0
 node=  4553 local x,y,z forces =    0.0000E+00    0.0000E+00    0.0000E+00  setid=       0
 node=  4554 local x,y,z forces =    0.0000E+00    0.0000E+00    0.0000E+00  setid=       0
 node=  4555 local x,y,z forces =    0.0000E+00    0.0000E+00    0.0000E+00  setid=       0
 node=  4556 local x,y,z forces =    0.0000E+00    0.0000E+00    0.0000E+00  setid=       0
 node=  4557 local x,y,z forces =    0.0000E+00    0.0000E+00    0.0000E+00  setid=       0
 node=  4558 local x,y,z forces =    0.0000E+00    0.0000E+00    0.0000E+00  setid=       0
 node=  4559 local x,y,z forces =    0.0000E+00    0.0000E+00    0.0000E+00  setid=       0
 node=  4560 local x,y,z forces =    0.0000E+00    0.0000E+00    0.0000E+00  setid=       0
 node=  4561 local x,y,z forces =    0.0000E+00    0.0000E+00    0.0000E+00  setid=       0
 node=  4562 local x,y,z forces =    0.0000E+00    0.0000E+00    0.0000E+00  setid=       0
 node=  4563 local x,y,z forces =    0.0000E+00    0.0000E+00    0.0000E+00  setid=       0
 node=  4564 local x,y,z forces =    0.0000E+00    0.0000E+00    0.0000E+00  setid=       0
 node=  4565 local x,y,z forces =    0.0000E+00    0.0000E+00    0.0000E+00  setid=       0
 node=  4566 local x,y,z forces =    0.0000E+00    0.0000E+00    0.0000E+00  setid=       0
 node=  4567 local x,y,z forces =    0.0000E+00    0.0000E+00    0.0000E+00  setid=       0
 node=  4568 local x,y,z forces =    0.0000E+00    0.0000E+00    0.0000E+00  setid=       0
 node=  4569 local x,y,z forces =    0.0000E+00    0.0000E+00    0.0000E+00  setid=       0
 node=  4570 local x,y,z forces =    0.0000E+00    0.0000E+00    0.0000E+00  setid=       0
 node=  4571 local x,y,z forces =    0.0000E+00    0.0000E+00    0.0000E+00  setid=       0
 node=  4572 local x,y,z forces =    0.0000E+00    0.0000E+00    0.0000E+00  setid=       0
 node=  4573 local x,y,z forces =    0.0000E+00    0.0000E+00    0.0000E+00  setid=       0
 node=  4574 local x,y,z forces =    0.0000E+00    0.0000E+00    0.0000E+00  setid=       0
 node=  4575 local x,y,z forces =    0.0000E+00    0.0000E+00    0.0000E+00  setid=       0
 node=  4576 local x,y,z forces =    0.0000E+00    0.0000E+00    0.0000E+00  setid=       0
 node=  4577 local x,y,z forces =    0.0000E+00    0.0000E+00    0.0000E+00  setid=       0
 node=  4578 local x,y,z forces =    0.0000E+00    0.0000E+00    0.0000E+00  setid=       0
 node=  4579 local x,y,z forces =    0.0000E+00    0.0000E+00    0.0000E+00  setid=       0
 node=  4580 local x,y,z forces =    0.0000E+00    0.0000E+00    0.0000E+00  setid=       0
 node=  4581 local x,y,z forces =    0.0000E+00    0.0000E+00    0.0000E+00  setid=       0
 node=  4582 local x,y,z forces =    0.0000E+00    0.0000E+00    0.0000E+00  setid=       0
 node=  4583 local x,y,z forces =    0.0000E+00    0.0000E+00    0.0000E+00  setid=       0
 node=  4584 local x,y,z forces =    0.0000E+00    0.0000E+00    0.0000E+00  setid=       0
 node=  4585 local x,y,z forces =    0.0000E+00    0.0000E+00    0.0000E+00  setid=       0
 node=  4586 local x,y,z forces =    0.0000E+00    0.0000E+00    0.0000E+00  setid=       0
 node=  4587 local x,y,z forces =    0.0000E+00    0.0000E+00    0.0000E+00  setid=       0
 node=  4588 local x,y,z forces =    0.0000E+00    0.0000E+00    0.0000E+00  setid=       0
 node=  4589 local x,y,z forces =    0.0000E+00    0.0000E+00    0.0000E+00  setid=       0
 node=  4590 local x,y,z forces =    0.0000E+00    0.0000E+00    0.0000E+00  setid=       0
 node=  4591 local x,y,z forces =    0.0000E+00    0.0000E+00    0.0000E+00  setid=       0
 node=  4592 local x,y,z forces =    0.0000E+00    0.0000E+00    0.0000E+00  setid=       0
 node=  4593 local x,y,z forces =    0.0000E+00    0.0000E+00    0.0000E+00  setid=       0
 node=  4594 local x,y,z forces =    0.0000E+00    0.0000E+00    0.0000E+00  setid=       0
 node=  4595 local x,y,z forces =    0.0000E+00    0.0000E+00    0.0000E+00  setid=       0
 node=  4596 local x,y,z forces =    0.0000E+00    0.0000E+00    0.0000E+00  setid=       0
 node=  4597 local x,y,z forces =    0.0000E+00    0.0000E+00    0.0000E+00  setid=       0
 node=  4598 local x,y,z forces =    0.0000E+00    0.0000E+00    0.0000E+00  setid=       0
 node=  4599 local x,y,z forces =    0.0000E+00    0.0000E+00    0.0000E+00  setid=       0
 node=  4600 local x,y,z forces =    0.0000E+00    0.0000E+00    0.0000E+00  setid=       0
 node=  4601 local x,y,z forces =    0.0000E+00    0.0000E+00    0.0000E+00  setid=       0
 node=  4602 local x,y,z forces =    0.0000E+00    0.0000E+00    0.0000E+00  setid=       0
 node=  4603 local x,y,z forces =    0.0000E+00    0.0000E+00    0.0000E+00  setid=       0
 node=  4604 local x,y,z forces =    0.0000E+00    0.0000E+00    0.0000E+00  setid=       0
 node=  4605 local x,y,z forces =    0.0000E+00    0.0000E+00    0.0000E+00  setid=       0
 node=  4606 local x,y,z forces =    0.0000E+00    0.0000E+00    0.0000E+00  setid=       0
 node=  4607 local x,y,z forces =    0.0000E+00    0.0000E+00    0.0000E+00  setid=       0
 node=  4608 local x,y,z forces =    0.0000E+00    0.0000E+00    0.0000E+00  setid=       0
 node=  4609 local x,y,z forces =    0.0000E+00    0.0000E+00    0.0000E+00  setid=       0
 node=  4610 local x,y,z forces =    0.0000E+00    0.0000E+00    0.0000E+00  setid=       0
 node=  4611 local x,y,z forces =    0.0000E+00    0.0000E+00    0.0000E+00  setid=       0
 node=  4612 local x,y,z forces =    0.0000E+00    0.0000E+00    0.0000E+00  setid=       0
 node=  4613 local x,y,z forces =    0.0000E+00    0.0000E+00    0.0000E+00  setid=       0
 node=  4614 local x,y,z forces =    0.0000E+00    0.0000E+00    0.0000E+00  setid=       0
 node=  4615 local x,y,z forces =    0.0000E+00    0.0000E+00    0.0000E+00  setid=       0
 node=  4616 local x,y,z forces =    0.0000E+00    0.0000E+00    0.0000E+00  setid=       0
 node=  4617 local x,y,z forces =    0.0000E+00    0.0000E+00    0.0000E+00  setid=       0
 node=  4618 local x,y,z forces =    0.0000E+00    0.0000E+00    0.0000E+00  setid=       0
 node=  4619 local x,y,z forces =    0.0000E+00    0.0000E+00    0.0000E+00  setid=       0
 node=  4620 local x,y,z forces =    0.0000E+00    0.0000E+00    0.0000E+00  setid=       0
 node=  4621 local x,y,z forces =    0.0000E+00    0.0000E+00    0.0000E+00  setid=       0
 node=  4622 local x,y,z forces =    0.0000E+00    0.0000E+00    0.0000E+00  setid=       0
 node=  4623 local x,y,z forces =    0.0000E+00    0.0000E+00    0.0000E+00  setid=       0
 node=  4624 local x,y,z forces =    0.0000E+00    0.0000E+00    0.0000E+00  setid=       0
 node=  4625 local x,y,z forces =    0.0000E+00    0.0000E+00    0.0000E+00  setid=       0
 node=  4626 local x,y,z forces =    0.0000E+00    0.0000E+00    0.0000E+00  setid=       0
 node=  4627 local x,y,z forces =    0.0000E+00    0.0000E+00    0.0000E+00  setid=       0
 node=  4628 local x,y,z forces =    0.0000E+00    0.0000E+00    0.0000E+00  setid=       0
 node=  4629 local x,y,z forces =    0.0000E+00    0.0000E+00    0.0000E+00  setid=       0
 node=  4630 local x,y,z forces =    0.0000E+00    0.0000E+00    0.0000E+00  setid=       0
 node=  4631 local x,y,z forces =    0.0000E+00    0.0000E+00    0.0000E+00  setid=       0
 node=  4632 local x,y,z forces =    0.0000E+00    0.0000E+00    0.0000E+00  setid=       0
 node=  4633 local x,y,z forces =    0.0000E+00    0.0000E+00    0.0000E+00  setid=       0
 node=  4634 local x,y,z forces =    0.0000E+00    0.0000E+00    0.0000E+00  setid=       0
 node=  4635 local x,y,z forces =    0.0000E+00    0.0000E+00    0.0000E+00  setid=       0
 node=  4636 local x,y,z forces =    0.0000E+00    0.0000E+00    0.0000E+00  setid=       0
 node=  4637 local x,y,z forces =    0.0000E+00    0.0000E+00    0.0000E+00  setid=       0
 node=  4638 local x,y,z forces =    0.0000E+00    0.0000E+00    0.0000E+00  setid=       0
 node=  4639 local x,y,z forces =    0.0000E+00    0.0000E+00    0.0000E+00  setid=       0
 node=  4640 local x,y,z forces =    0.0000E+00    0.0000E+00    0.0000E+00  setid=       0
 node=  4641 local x,y,z forces =    0.0000E+00    0.0000E+00    0.0000E+00  setid=       0
             force resultants   =    0.0000E+00    0.0000E+00    0.0000E+00
 output at time =   2.00000E-04
 node=     1 local x,y,z forces =   -9.5518E+03   -1.1180E+04   -3.6874E+04  setid=       0
 node=     2 local x,y,z forces =   -5.9824E+03   -2.2585E+04   -6.1136E+04  setid=       0
 node=     3 local x,y,z forces =   -2.9196E+03   -2.2262E+04   -5.9572E+04  setid=       0
 node=     4 local x,y,z forces =   -8.9923E-04   -2.2496E+04   -5.9750E+04  setid=       0
 node=     5 local x,y,z forces =    2.9196E+03   -2.2262E+04   -5.9572E+04  setid=       0
 node=     6 local x,y,z forces =    5.9824E+03   -2.2585E+04   -6.1136E+04  setid=       0
 node=     7 local x,y,z forces =    9.5518E+03   -1.1180E+04   -3.6874E+04  setid=       0
 node=     8 local x,y,z forces =   -1.9262E+04   -8.4042E+03   -5.6190E+04  setid=       0
 node=     9 local x,y,z forces =   -1.1847E+04   -1.6725E+04   -8.6893E+04  setid=       0
 node=    10 local x,y,z forces =   -5.8155E+03   -1.6672E+04   -8.3479E+04  setid=       0
 node=    11 local x,y,z forces =   -1.4209E-03   -1.6721E+04   -8.3736E+04  setid=       0
 node=    12 local x,y,z forces =    5.8155E+03   -1.6672E+04   -8.3479E+04  setid=       0
 node=    13 local x,y,z forces =    1.1847E+04   -1.6725E+04   -8.6893E+04  setid=       0
 node=    14 local x,y,z forces =    1.9262E+04   -8.4041E+03   -5.6190E+04  setid=       0
 node=    15 local x,y,z forces =   -1.8623E+04   -6.3536E+03   -5.2537E+04  setid=       0
 node=    16 local x,y,z forces =   -1.1765E+04   -1.2659E+04   -7.9382E+04  setid=       0
 node=    17 local x,y,z forces =   -5.8801E+03   -1.2733E+04   -7.5763E+04  setid=       0
 node=    18 local x,y,z forces =   -1.0062E-03   -1.2829E+04   -7.6047E+04  setid=       0
 node=    19 local x,y,z forces =    5.8801E+03   -1.2733E+04   -7.5763E+04  setid=       0
 node=    20 local x,y,z forces =    1.1765E+04   -1.2659E+04   -7.9382E+04  setid=       0
 node=    21 local x,y,z forces =    1.8623E+04   -6.3536E+03   -5.2537E+04  setid=       0
 node=    22 local x,y,z forces =   -1.8688E+04   -4.1657E+03   -5.2119E+04  setid=       0
 node=    23 local x,y,z forces =   -1.1838E+04   -8.2523E+03   -7.8368E+04  setid=       0
 node=    24 local x,y,z forces =   -6.0129E+03   -8.2555E+03   -7.4774E+04  setid=       0
 node=    25 local x,y,z forces =   -9.3981E-04   -8.2937E+03   -7.5140E+04  setid=       0
 node=    26 local x,y,z forces =    6.0129E+03   -8.2555E+03   -7.4774E+04  setid=       0
 node=    27 local x,y,z forces =    1.1838E+04   -8.2523E+03   -7.8368E+04  setid=       0
 node=    28 local x,y,z forces =    1.8688E+04   -4.1657E+03   -5.2119E+04  setid=       0
 node=    29 local x,y,z forces =   -1.8688E+04   -2.6759E+03   -5.1829E+04  setid=       0
 node=    30 local x,y,z forces =   -1.1923E+04   -5.2744E+03   -7.7623E+04  setid=       0
 node=    31 local x,y,z forces =   -6.1052E+03   -5.2384E+03   -7.4009E+04  setid=       0
 node=    32 local x,y,z forces =   -9.1561E-04   -5.2484E+03   -7.4406E+04  setid=       0
 node=    33 local x,y,z forces =    6.1052E+03   -5.2384E+03   -7.4009E+04  setid=       0
 node=    34 local x,y,z forces =    1.1923E+04   -5.2744E+03   -7.7623E+04  setid=       0
 node=    35 local x,y,z forces =    1.8688E+04   -2.6759E+03   -5.1829E+04  setid=       0
 node=    36 local x,y,z forces =   -1.8709E+04   -1.2642E+03   -5.1736E+04  setid=       0
 node=    37 local x,y,z forces =   -1.1963E+04   -2.4984E+03   -7.7341E+04  setid=       0
 node=    38 local x,y,z forces =   -6.1530E+03   -2.4794E+03   -7.3699E+04  setid=       0
 node=    39 local x,y,z forces =   -8.9832E-04   -2.4802E+03   -7.4106E+04  setid=       0
 node=    40 local x,y,z forces =    6.1530E+03   -2.4794E+03   -7.3699E+04  setid=       0
 node=    41 local x,y,z forces =    1.1963E+04   -2.4984E+03   -7.7341E+04  setid=       0
 node=    42 local x,y,z forces =    1.8709E+04   -1.2642E+03   -5.1736E+04  setid=       0
 node=    43 local x,y,z forces =   -1.8693E+04    4.5179E+01   -5.1651E+04  setid=       0
 node=    44 local x,y,z forces =   -1.1965E+04    6.8189E+01   -7.7162E+04  setid=       0
 node=    45 local x,y,z forces =   -6.1617E+03    5.3909E+01   -7.3514E+04  setid=       0
 node=    46 local x,y,z forces =   -8.9244E-04    5.1006E+01   -7.3922E+04  setid=       0
 node=    47 local x,y,z forces =    6.1617E+03    5.3909E+01   -7.3514E+04  setid=       0
 node=    48 local x,y,z forces =    1.1965E+04    6.8189E+01   -7.7162E+04  setid=       0
 node=    49 local x,y,z forces =    1.8693E+04    4.5179E+01   -5.1651E+04  setid=       0
 node=    50 local x,y,z forces =   -1.8655E+04    1.3515E+03   -5.1586E+04  setid=       0
 node=    51 local x,y,z forces =   -1.1929E+04    2.6289E+03   -7.7115E+04  setid=       0
 node=    52 local x,y,z forces =   -6.1355E+03    2.5815E+03   -7.3482E+04  setid=       0
 node=    53 local x,y,z forces =   -8.9531E-04    2.5765E+03   -7.3888E+04  setid=       0
 node=    54 local x,y,z forces =    6.1355E+03    2.5815E+03   -7.3482E+04  setid=       0
 node=    55 local x,y,z forces =    1.1929E+04    2.6289E+03   -7.7115E+04  setid=       0
 node=    56 local x,y,z forces =    1.8655E+04    1.3515E+03   -5.1586E+04  setid=       0
 node=    57 local x,y,z forces =   -1.8582E+04    2.7530E+03   -5.1530E+04  setid=       0
 node=    58 local x,y,z forces =   -1.1855E+04    5.3853E+03   -7.7171E+04  setid=       0
 node=    59 local x,y,z forces =   -6.0705E+03    5.3214E+03   -7.3575E+04  setid=       0
 node=    60 local x,y,z forces =   -9.0946E-04    5.3256E+03   -7.3969E+04  setid=       0
 node=    61 local x,y,z forces =    6.0705E+03    5.3214E+03   -7.3575E+04  setid=       0
 node=    62 local x,y,z forces =    1.1855E+04    5.3853E+03   -7.7171E+04  setid=       0
 node=    63 local x,y,z forces =    1.8582E+04    2.7530E+03   -5.1530E+04  setid=       0
 node=    64 local x,y,z forces =   -1.8530E+04    4.2249E+03   -5.1671E+04  setid=       0
 node=    65 local x,y,z forces =   -1.1736E+04    8.3289E+03   -7.7687E+04  setid=       0
 node=    66 local x,y,z forces =   -5.9618E+03    8.3047E+03   -7.4120E+04  setid=       0
 node=    67 local x,y,z forces =   -9.3029E-04    8.3368E+03   -7.4482E+04  setid=       0
 node=    68 local x,y,z forces =    5.9618E+03    8.3047E+03   -7.4120E+04  setid=       0
 node=    69 local x,y,z forces =    1.1736E+04    8.3289E+03   -7.7687E+04  setid=       0
 node=    70 local x,y,z forces =    1.8530E+04    4.2249E+03   -5.1671E+04  setid=       0
 node=    71 local x,y,z forces =   -1.8416E+04    6.3776E+03   -5.1943E+04  setid=       0
 node=    72 local x,y,z forces =   -1.1632E+04    1.2668E+04   -7.8476E+04  setid=       0
 node=    73 local x,y,z forces =   -5.8138E+03    1.2714E+04   -7.4892E+04  setid=       0
 node=    74 local x,y,z forces =   -9.9253E-04    1.2804E+04   -7.5171E+04  setid=       0
 node=    75 local x,y,z forces =    5.8138E+03    1.2714E+04   -7.4892E+04  setid=       0
 node=    76 local x,y,z forces =    1.1632E+04    1.2668E+04   -7.8477E+04  setid=       0
 node=    77 local x,y,z forces =    1.8416E+04    6.3775E+03   -5.1943E+04  setid=       0
 node=    78 local x,y,z forces =   -1.9008E+04    8.3747E+03   -5.5438E+04  setid=       0
 node=    79 local x,y,z forces =   -1.1682E+04    1.6635E+04   -8.5724E+04  setid=       0
 node=    80 local x,y,z forces =   -5.7327E+03    1.6561E+04   -8.2341E+04  setid=       0
 node=    81 local x,y,z forces =   -1.3974E-03    1.6606E+04   -8.2588E+04  setid=       0
 node=    82 local x,y,z forces =    5.7327E+03    1.6561E+04   -8.2341E+04  setid=       0
 node=    83 local x,y,z forces =    1.1682E+04    1.6635E+04   -8.5724E+04  setid=       0
 node=    84 local x,y,z forces =    1.9008E+04    8.3747E+03   -5.5438E+04  setid=       0
 node=    85 local x,y,z forces =   -9.4150E+03    1.1059E+04   -3.6377E+04  setid=       0
 node=    86 local x,y,z forces =   -5.8891E+03    2.2324E+04   -6.0312E+04  setid=       0
 node=    87 local x,y,z forces =   -2.8727E+03    2.1993E+04   -5.8749E+04  setid=       0
 node=    88 local x,y,z forces =   -8.8395E-04    2.2220E+04   -5.8916E+04  setid=       0
 node=    89 local x,y,z forces =    2.8727E+03    2.1993E+04   -5.8749E+04  setid=       0
 node=    90 local x,y,z forces =    5.8891E+03    2.2324E+04   -6.0312E+04  setid=       0
 node=    91 local x,y,z forces =    9.4150E+03    1.1059E+04   -3.6377E+04  setid=       0
 node=  2227 local x,y,z forces =   -8.4938E+04    0.0000E+00    0.0000E+00  setid=       3
 node=  2233 local x,y,z forces =    8.4938E+04    0.0000E+00    0.0000E+00  setid=       3
 node=  2318 local x,y,z forces =   -1.2617E+05    0.0000E+00    0.0000E+00  setid=       3
 node=  2324 local x,y,z forces =    1.2617E+05    0.0000E+00    0.0000E+00  setid=       3
 node=  2409 local x,y,z forces =   -8.4938E+04    0.0000E+00    0.0000E+00  setid=       3
 node=  2415 local x,y,z forces =    8.4938E+04    0.0000E+00    0.0000E+00  setid=       3
 node=  4551 local x,y,z forces =   -9.5518E+03   -1.1180E+04    0.0000E+00  setid=       0
 node=  4552 local x,y,z forces =   -5.9824E+03   -2.2585E+04    0.0000E+00  setid=       0
 node=  4553 local x,y,z forces =   -2.9196E+03   -2.2262E+04    0.0000E+00  setid=       0
 node=  4554 local x,y,z forces =   -8.9923E-04   -2.2496E+04    0.0000E+00  setid=       0
 node=  4555 local x,y,z forces =    2.9196E+03   -2.2262E+04    0.0000E+00  setid=       0
 node=  4556 local x,y,z forces =    5.9824E+03   -2.2585E+04    0.0000E+00  setid=       0
 node=  4557 local x,y,z forces =    9.5518E+03   -1.1180E+04    0.0000E+00  setid=       0
 node=  4558 local x,y,z forces =   -1.9262E+04   -8.4042E+03    0.0000E+00  setid=       0
 node=  4559 local x,y,z forces =   -1.1847E+04   -1.6725E+04    0.0000E+00  setid=       0
 node=  4560 local x,y,z forces =   -5.8155E+03   -1.6672E+04    0.0000E+00  setid=       0
 node=  4561 local x,y,z forces =   -1.4209E-03   -1.6721E+04    0.0000E+00  setid=       0
 node=  4562 local x,y,z forces =    5.8155E+03   -1.6672E+04    0.0000E+00  setid=       0
 node=  4563 local x,y,z forces =    1.1847E+04   -1.6725E+04    0.0000E+00  setid=       0
 node=  4564 local x,y,z forces =    1.9262E+04   -8.4041E+03    0.0000E+00  setid=       0
 node=  4565 local x,y,z forces =   -1.8623E+04   -6.3536E+03    0.0000E+00  setid=       0
 node=  4566 local x,y,z forces =   -1.1765E+04   -1.2659E+04    0.0000E+00  setid=       0
 node=  4567 local x,y,z forces =   -5.8801E+03   -1.2733E+04    0.0000E+00  setid=       0
 node=  4568 local x,y,z forces =   -1.0062E-03   -1.2829E+04    0.0000E+00  setid=       0
 node=  4569 local x,y,z forces =    5.8801E+03   -1.2733E+04    0.0000E+00  setid=       0
 node=  4570 local x,y,z forces =    1.1765E+04   -1.2659E+04    0.0000E+00  setid=       0
 node=  4571 local x,y,z forces =    1.8623E+04   -6.3536E+03    0.0000E+00  setid=       0
 node=  4572 local x,y,z forces =   -1.8688E+04   -4.1657E+03    0.0000E+00  setid=       0
 node=  4573 local x,y,z forces =   -1.1838E+04   -8.2523E+03    0.0000E+00  setid=       0
 node=  4574 local x,y,z forces =   -6.0129E+03   -8.2555E+03    0.0000E+00  setid=       0
 node=  4575 local x,y,z forces =   -9.3981E-04   -8.2937E+03    0.0000E+00  setid=       0
 node=  4576 local x,y,z forces =    6.0129E+03   -8.2555E+03    0.0000E+00  setid=       0
 node=  4577 local x,y,z forces =    1.1838E+04   -8.2523E+03    0.0000E+00  setid=       0
 node=  4578 local x,y,z forces =    1.8688E+04   -4.1657E+03    0.0000E+00  setid=       0
 node=  4579 local x,y,z forces =   -1.8688E+04   -2.6759E+03    0.0000E+00  setid=       0
 node=  4580 local x,y,z forces =   -1.1923E+04   -5.2744E+03    0.0000E+00  setid=       0
 node=  4581 local x,y,z forces =   -6.1052E+03   -5.2384E+03    0.0000E+00  setid=       0
 node=  4582 local x,y,z forces =   -9.1561E-04   -5.2484E+03    0.0000E+00  setid=       0
 node=  4583 local x,y,z forces =    6.1052E+03   -5.2384E+03    0.0000E+00  setid=       0
 node=  4584 local x,y,z forces =    1.1923E+04   -5.2744E+03    0.0000E+00  setid=       0
 node=  4585 local x,y,z forces =    1.8688E+04   -2.6759E+03    0.0000E+00  setid=       0
 node=  4586 local x,y,z forces =   -1.8709E+04   -1.2642E+03    0.0000E+00  setid=       0
 node=  4587 local x,y,z forces =   -1.1963E+04   -2.4984E+03    0.0000E+00  setid=       0
 node=  4588 local x,y,z forces =   -6.1530E+03   -2.4794E+03    0.0000E+00  setid=       0
 node=  4589 local x,y,z forces =   -8.9832E-04   -2.4802E+03    0.0000E+00  setid=       0
 node=  4590 local x,y,z forces =    6.1530E+03   -2.4794E+03    0.0000E+00  setid=       0
 node=  4591 local x,y,z forces =    1.1963E+04   -2.4984E+03    0.0000E+00  setid=       0
 node=  4592 local x,y,z forces =    1.8709E+04   -1.2642E+03    0.0000E+00  setid=       0
 node=  4593 local x,y,z forces =   -1.8693E+04    4.5179E+01    0.0000E+00  setid=       0
 node=  4594 local x,y,z forces =   -1.1965E+04    6.8189E+01    0.0000E+00  setid=       0
 node=  4595 local x,y,z forces =   -6.1617E+03    5.3909E+01    0.0000E+00  setid=       0
 node=  4596 local x,y,z forces =   -8.9244E-04    5.1006E+01    0.0000E+00  setid=       0
 node=  4597 local x,y,z forces =    6.1617E+03    5.3909E+01    0.0000E+00  setid=       0
 node=  4598 local x,y,z forces =    1.1965E+04    6.8189E+01    0.0000E+00  setid=       0
 node=  4599 local x,y,z forces =    1.8693E+04    4.5179E+01    0.0000E+00  setid=       0
 node=  4600 local x,y,z forces =   -1.8655E+04    1.3515E+03    0.0000E+00  setid=       0
 node=  4601 local x,y,z forces =   -1.1929E+04    2.6289E+03    0.0000E+00  setid=       0
 node=  4602 local x,y,z forces =   -6.1355E+03    2.5815E+03    0.0000E+00  setid=       0
 node=  4603 local x,y,z forces =   -8.9531E-04    2.5765E+03    0.0000E+00  setid=       0
 node=  4604 local x,y,z forces =    6.1355E+03    2.5815E+03    0.0000E+00  setid=       0
 node=  4605 local x,y,z forces =    1.1929E+04    2.6289E+03    0.0000E+00  setid=       0
 node=  4606 local x,y,z forces =    1.8655E+04    1.3515E+03    0.0000E+00  setid=       0
 node=  4607 local x,y,z forces =   -1.8582E+04    2.7530E+03    0.0000E+00  setid=       0
 node=  4608 local x,y,z forces =   -1.1855E+04    5.3853E+03    0.0000E+00  setid=       0
 node=  4609 local x,y,z forces =   -6.0705E+03    5.3214E+03    0.0000E+00  setid=       0
 node=  4610 local x,y,z forces =   -9.0946E-04    5.3256E+03    0.0000E+00  setid=       0
 node=  4611 local x,y,z forces =    6.0705E+03    5.3214E+03    0.0000E+00  setid=       0
 node=  4612 local x,y,z forces =    1.1855E+04    5.3853E+03    0.0000E+00  setid=       0
 node=  4613 local x,y,z forces =    1.8582E+04    2.7530E+03    0.0000E+00  setid=       0
 node=  4614 local x,y,z forces =   -1.8530E+04    4.2249E+03    0.0000E+00  setid=       0
 node=  4615 local x,y,z forces =   -1.1736E+04    8.3289E+03    0.0000E+00  setid=       0
 node=  4616 local x,y,z forces =   -5.9618E+03    8.3047E+03    0.0000E+00  setid=       0
 node=  4617 local x,y,z forces =   -9.3029E-04    8.3368E+03    0.0000E+00  setid=       0
 node=  4618 local x,y,z forces =    5.9618E+03    8.3047E+03    0.0000E+00  setid=       0
 node=  4619 local x,y,z forces =    1.1736E+04    8.3289E+03    0.0000E+00  setid=       0
 node=  4620 local x,y,z forces =    1.8530E+04    4.2249E+03    0.0000E+00  setid=       0
 node=  4621 local x,y,z forces =   -1.8416E+04    6.3776E+03    0.0000E+00  setid=       0
 node=  4622 local x,y,z forces =   -1.1632E+04    1.2668E+04    0.0000E+00  setid=       0
 node=  4623 local x,y,z forces =   -5.8138E+03    1.2714E+04    0.0000E+00  setid=       0
 node=  4624 local x,y,z forces =   -9.9253E-04    1.2804E+04    0.0000E+00  setid=       0
 node=  4625 local x,y,z forces =    5.8138E+03    1.2714E+04    0.0000E+00  setid=       0
 node=  4626 local x,y,z forces =    1.1632E+04    1.2668E+04    0.0000E+00  setid=       0
 node=  4627 local x,y,z forces =    1.8416E+04    6.3775E+03    0.0000E+00  setid=       0
 node=  4628 local x,y,z forces =   -1.9008E+04    8.3747E+03    0.0000E+00  setid=       0
 node=  4629 local x,y,z forces =   -1.1682E+04    1.6635E+04    0.0000E+00  setid=       0
 node=  4630 local x,y,z forces =   -5.7327E+03    1.6561E+04    0.0000E+00  setid=       0
 node=  4631 local x,y,z forces =   -1.3974E-03    1.6606E+04    0.0000E+00  setid=       0
 node=  4632 local x,y,z forces =    5.7327E+03    1.6561E+04    0.0000E+00  setid=       0
 node=  4633 local x,y,z forces =    1.1682E+04    1.6635E+04    0.0000E+00  setid=       0
 node=  4634 local x,y,z forces =    1.9008E+04    8.3747E+03    0.0000E+00  setid=       0
 node=  4635 local x,y,z forces =   -9.4150E+03    1.1059E+04    0.0000E+00  setid=       0
 node=  4636 local x,y,z forces =   -5.8891E+03    2.2324E+04    0.0000E+00  setid=       0
 node=  4637 local x,y,z forces =   -2.8727E+03    2.1993E+04    0.0000E+00  setid=       0
 node=  4638 local x,y,z forces =   -8.8395E-04    2.2220E+04    0.0000E+00  setid=       0
 node=  4639 local x,y,z forces =    2.8727E+03    2.1993E+04    0.0000E+00  setid=       0
 node=  4640 local x,y,z forces =    5.8891E+03    2.2324E+04    0.0000E+00  setid=       0
 node=  4641 local x,y,z forces =    9.4150E+03    1.1059E+04    0.0000E+00  setid=       0
             force resultants   =   -2.1259E-08    1.5285E-01   -6.1518E+06
 output at time =   4.00000E-04
 node=     1 local x,y,z forces =   -1.9105E+04   -2.2358E+04   -7.3830E+04  setid=       0
 node=     2 local x,y,z forces =   -1.1969E+04   -4.5172E+04   -1.2239E+05  setid=       0
 node=     3 local x,y,z forces =   -5.8420E+03   -4.4527E+04   -1.1926E+05  setid=       0
 node=     4 local x,y,z forces =   -1.7999E-03   -4.4996E+04   -1.1962E+05  setid=       0
 node=     5 local x,y,z forces =    5.8420E+03   -4.4527E+04   -1.1926E+05  setid=       0
 node=     6 local x,y,z forces =    1.1969E+04   -4.5172E+04   -1.2239E+05  setid=       0
 node=     7 local x,y,z forces =    1.9105E+04   -2.2358E+04   -7.3830E+04  setid=       0
 node=     8 local x,y,z forces =   -3.8530E+04   -1.6809E+04   -1.1249E+05  setid=       0
 node=     9 local x,y,z forces =   -2.3700E+04   -3.3453E+04   -1.7392E+05  setid=       0
 node=    10 local x,y,z forces =   -1.1636E+04   -3.3345E+04   -1.6708E+05  setid=       0
 node=    11 local x,y,z forces =   -2.8445E-03   -3.3443E+04   -1.6759E+05  setid=       0
 node=    12 local x,y,z forces =    1.1636E+04   -3.3345E+04   -1.6708E+05  setid=       0
 node=    13 local x,y,z forces =    2.3700E+04   -3.3453E+04   -1.7392E+05  setid=       0
 node=    14 local x,y,z forces =    3.8530E+04   -1.6809E+04   -1.1249E+05  setid=       0
 node=    15 local x,y,z forces =   -3.7252E+04   -1.2709E+04   -1.0517E+05  setid=       0
 node=    16 local x,y,z forces =   -2.3535E+04   -2.5322E+04   -1.5887E+05  setid=       0
 node=    17 local x,y,z forces =   -1.1764E+04   -2.5469E+04   -1.5162E+05  setid=       0
 node=    18 local x,y,z forces =   -2.0146E-03   -2.5661E+04   -1.5218E+05  setid=       0
 node=    19 local x,y,z forces =    1.1764E+04   -2.5469E+04   -1.5162E+05  setid=       0
 node=    20 local x,y,z forces =    2.3535E+04   -2.5322E+04   -1.5887E+05  setid=       0
 node=    21 local x,y,z forces =    3.7252E+04   -1.2709E+04   -1.0517E+05  setid=       0
 node=    22 local x,y,z forces =   -3.7380E+04   -8.3313E+03   -1.0432E+05  setid=       0
 node=    23 local x,y,z forces =   -2.3679E+04   -1.6505E+04   -1.5683E+05  setid=       0
 node=    24 local x,y,z forces =   -1.2029E+04   -1.6511E+04   -1.4963E+05  setid=       0
 node=    25 local x,y,z forces =   -1.8817E-03   -1.6588E+04   -1.5036E+05  setid=       0
 node=    26 local x,y,z forces =    1.2029E+04   -1.6511E+04   -1.4963E+05  setid=       0
 node=    27 local x,y,z forces =    2.3679E+04   -1.6505E+04   -1.5683E+05  setid=       0
 node=    28 local x,y,z forces =    3.7380E+04   -8.3313E+03   -1.0432E+05  setid=       0
 node=    29 local x,y,z forces =   -3.7378E+04   -5.3510E+03   -1.0374E+05  setid=       0
 node=    30 local x,y,z forces =   -2.3849E+04   -1.0547E+04   -1.5533E+05  setid=       0
 node=    31 local x,y,z forces =   -1.2213E+04   -1.0476E+04   -1.4809E+05  setid=       0
 node=    32 local x,y,z forces =   -1.8332E-03   -1.0496E+04   -1.4888E+05  setid=       0
 node=    33 local x,y,z forces =    1.2213E+04   -1.0476E+04   -1.4809E+05  setid=       0
 node=    34 local x,y,z forces =    2.3849E+04   -1.0547E+04   -1.5533E+05  setid=       0
 node=    35 local x,y,z forces =    3.7378E+04   -5.3510E+03   -1.0374E+05  setid=       0
 node=    36 local x,y,z forces =   -3.7419E+04   -2.5266E+03   -1.0355E+05  setid=       0
 node=    37 local x,y,z forces =   -2.3928E+04   -4.9940E+03   -1.5476E+05  setid=       0
 node=    38 local x,y,z forces =   -1.2308E+04   -4.9565E+03   -1.4746E+05  setid=       0
 node=    39 local x,y,z forces =   -1.7986E-03   -4.9583E+03   -1.4828E+05  setid=       0
 node=    40 local x,y,z forces =    1.2308E+04   -4.9565E+03   -1.4746E+05  setid=       0
 node=    41 local x,y,z forces =    2.3928E+04   -4.9940E+03   -1.5476E+05  setid=       0
 node=    42 local x,y,z forces =    3.7418E+04   -2.5266E+03   -1.0355E+05  setid=       0
 node=    43 local x,y,z forces =   -3.7386E+04    9.2885E+01   -1.0337E+05  setid=       0
 node=    44 local x,y,z forces =   -2.3931E+04    1.4012E+02   -1.5439E+05  setid=       0
 node=    45 local x,y,z forces =   -1.2325E+04    1.1074E+02   -1.4709E+05  setid=       0
 node=    46 local x,y,z forces =   -1.7867E-03    1.0477E+02   -1.4790E+05  setid=       0
 node=    47 local x,y,z forces =    1.2325E+04    1.1074E+02   -1.4709E+05  setid=       0
 node=    48 local x,y,z forces =    2.3931E+04    1.4012E+02   -1.5439E+05  setid=       0
 node=    49 local x,y,z forces =    3.7386E+04    9.2885E+01   -1.0337E+05  setid=       0
 node=    50 local x,y,z forces =   -3.7309E+04    2.7060E+03   -1.0324E+05  setid=       0
 node=    51 local x,y,z forces =   -2.3857E+04    5.2622E+03   -1.5429E+05  setid=       0
 node=    52 local x,y,z forces =   -1.2272E+04    5.1663E+03   -1.4702E+05  setid=       0
 node=    53 local x,y,z forces =   -1.7924E-03    5.1561E+03   -1.4783E+05  setid=       0
 node=    54 local x,y,z forces =    1.2272E+04    5.1663E+03   -1.4702E+05  setid=       0
 node=    55 local x,y,z forces =    2.3858E+04    5.2622E+03   -1.5429E+05  setid=       0
 node=    56 local x,y,z forces =    3.7309E+04    2.7060E+03   -1.0324E+05  setid=       0
 node=    57 local x,y,z forces =   -3.7159E+04    5.5095E+03   -1.0312E+05  setid=       0
 node=    58 local x,y,z forces =   -2.3709E+04    1.0775E+04   -1.5440E+05  setid=       0
 node=    59 local x,y,z forces =   -1.2142E+04    1.0646E+04   -1.4720E+05  setid=       0
 node=    60 local x,y,z forces =   -1.8206E-03    1.0654E+04   -1.4799E+05  setid=       0
 node=    61 local x,y,z forces =    1.2142E+04    1.0646E+04   -1.4720E+05  setid=       0
 node=    62 local x,y,z forces =    2.3709E+04    1.0775E+04   -1.5440E+05  setid=       0
 node=    63 local x,y,z forces =    3.7159E+04    5.5095E+03   -1.0312E+05  setid=       0
 node=    64 local x,y,z forces =   -3.7054E+04    8.4530E+03   -1.0340E+05  setid=       0
 node=    65 local x,y,z forces =   -2.3470E+04    1.6662E+04   -1.5543E+05  setid=       0
 node=    66 local x,y,z forces =   -1.1924E+04    1.6612E+04   -1.4828E+05  setid=       0
 node=    67 local x,y,z forces =   -1.8621E-03    1.6676E+04   -1.4901E+05  setid=       0
 node=    68 local x,y,z forces =    1.1924E+04    1.6612E+04   -1.4828E+05  setid=       0
 node=    69 local x,y,z forces =    2.3470E+04    1.6662E+04   -1.5543E+05  setid=       0
 node=    70 local x,y,z forces =    3.7054E+04    8.4530E+03   -1.0340E+05  setid=       0
 node=    71 local x,y,z forces =   -3.6826E+04    1.2758E+04   -1.0394E+05  setid=       0
 node=    72 local x,y,z forces =   -2.3262E+04    2.5340E+04   -1.5700E+05  setid=       0
 node=    73 local x,y,z forces =   -1.1628E+04    2.5431E+04   -1.4983E+05  setid=       0
 node=    74 local x,y,z forces =   -1.9864E-03    2.5609E+04   -1.5038E+05  setid=       0
 node=    75 local x,y,z forces =    1.1628E+04    2.5431E+04   -1.4983E+05  setid=       0
 node=    76 local x,y,z forces =    2.3262E+04    2.5340E+04   -1.5700E+05  setid=       0
 node=    77 local x,y,z forces =    3.6826E+04    1.2758E+04   -1.0394E+05  setid=       0
 node=    78 local x,y,z forces =   -3.8007E+04    1.6749E+04   -1.1094E+05  setid=       0
 node=    79 local x,y,z forces =   -2.3361E+04    3.3267E+04   -1.7151E+05  setid=       0
 node=    80 local x,y,z forces =   -1.1466E+04    3.3117E+04   -1.6474E+05  setid=       0
 node=    81 local x,y,z forces =   -2.7960E-03    3.3205E+04   -1.6523E+05  setid=       0
 node=    82 local x,y,z forces =    1.1466E+04    3.3117E+04   -1.6474E+05  setid=       0
 node=    83 local x,y,z forces =    2.3361E+04    3.3267E+04   -1.7151E+05  setid=       0
 node=    84 local x,y,z forces =    3.8007E+04    1.6749E+04   -1.1094E+05  setid=       0
 node=    85 local x,y,z forces =   -1.8824E+04    2.2109E+04   -7.2808E+04  setid=       0
 node=    86 local x,y,z forces =   -1.1777E+04    4.4635E+04   -1.2070E+05  setid=       0
 node=    87 local x,y,z forces =   -5.7455E+03    4.3973E+04   -1.1756E+05  setid=       0
 node=    88 local x,y,z forces =   -1.7685E-03    4.4428E+04   -1.1790E+05  setid=       0
 node=    89 local x,y,z forces =    5.7455E+03    4.3973E+04   -1.1756E+05  setid=       0
 node=    90 local x,y,z forces =    1.1777E+04    4.4635E+04   -1.2070E+05  setid=       0
 node=    91 local x,y,z forces =    1.8824E+04    2.2109E+04   -7.2808E+04  setid=       0
 node=  2227 local x,y,z forces =   -1.6985E+05    0.0000E+00    0.0000E+00  setid=       3
 node=  2233 local x,y,z forces =    1.6985E+05    0.0000E+00    0.0000E+00  setid=       3
 node=  2318 local x,y,z forces =   -2.5229E+05    0.0000E+00    0.0000E+00  setid=       3
 node=  2324 local x,y,z forces =    2.5229E+05    0.0000E+00    0.0000E+00  setid=       3
 node=  2409 local x,y,z forces =   -1.6985E+05    0.0000E+00    0.0000E+00  setid=       3
 node=  2415 local x,y,z forces =    1.6985E+05    0.0000E+00    0.0000E+00  setid=       3
 node=  4551 local x,y,z forces =   -1.9105E+04   -2.2358E+04    0.0000E+00  setid=       0
 node=  4552 local x,y,z forces =   -1.1969E+04   -4.5172E+04    0.0000E+00  setid=       0
 node=  4553 local x,y,z forces =   -5.8420E+03   -4.4527E+04    0.0000E+00  setid=       0
 node=  4554 local x,y,z forces =   -1.7999E-03   -4.4996E+04    0.0000E+00  setid=       0
 node=  4555 local x,y,z forces =    5.8420E+03   -4.4527E+04    0.0000E+00  setid=       0
 node=  4556 local x,y,z forces =    1.1969E+04   -4.5172E+04    0.0000E+00  setid=       0
 node=  4557 local x,y,z forces =    1.9105E+04   -2.2358E+04    0.0000E+00  setid=       0
 node=  4558 local x,y,z forces =   -3.8530E+04   -1.6809E+04    0.0000E+00  setid=       0
 node=  4559 local x,y,z forces =   -2.3700E+04   -3.3453E+04    0.0000E+00  setid=       0
 node=  4560 local x,y,z forces =   -1.1636E+04   -3.3345E+04    0.0000E+00  setid=       0
 node=  4561 local x,y,z forces =   -2.8445E-03   -3.3443E+04    0.0000E+00  setid=       0
 node=  4562 local x,y,z forces =    1.1636E+04   -3.3345E+04    0.0000E+00  setid=       0
 node=  4563 local x,y,z forces =    2.3700E+04   -3.3453E+04    0.0000E+00  setid=       0
 node=  4564 local x,y,z forces =    3.8530E+04   -1.6809E+04    0.0000E+00  setid=       0
 node=  4565 local x,y,z forces =   -3.7252E+04   -1.2709E+04    0.0000E+00  setid=       0
 node=  4566 local x,y,z forces =   -2.3535E+04   -2.5322E+04    0.0000E+00  setid=       0
 node=  4567 local x,y,z forces =   -1.1764E+04   -2.5469E+04    0.0000E+00  setid=       0
 node=  4568 local x,y,z forces =   -2.0146E-03   -2.5661E+04    0.0000E+00  setid=       0
 node=  4569 local x,y,z forces =    1.1764E+04   -2.5469E+04    0.0000E+00  setid=       0
 node=  4570 local x,y,z forces =    2.3535E+04   -2.5322E+04    0.0000E+00  setid=       0
 node=  4571 local x,y,z forces =    3.7252E+04   -1.2709E+04    0.0000E+00  setid=       0
 node=  4572 local x,y,z forces =   -3.7380E+04   -8.3313E+03    0.0000E+00  setid=       0
 node=  4573 local x,y,z forces =   -2.3679E+04   -1.6505E+04    0.0000E+00  setid=       0
 node=  4574 local x,y,z forces =   -1.2029E+04   -1.6511E+04    0.0000E+00  setid=       0
 node=  4575 local x,y,z forces =   -1.8817E-03   -1.6588E+04    0.0000E+00  setid=       0
 node=  4576 local x,y,z forces =    1.2029E+04   -1.6511E+04    0.0000E+00  setid=       0
 node=  4577 local x,y,z forces =    2.3679E+04   -1.6505E+04    0.0000E+00  setid=       0
 node=  4578 local x,y,z forces =    3.7380E+04   -8.3313E+03    0.0000E+00  setid=       0
 node=  4579 local x,y,z forces =   -3.7378E+04   -5.3510E+03    0.0000E+00  setid=       0
 node=  4580 local x,y,z forces =   -2.3849E+04   -1.0547E+04    0.0000E+00  setid=       0
 node=  4581 local x,y,z forces =   -1.2213E+04   -1.0476E+04    0.0000E+00  setid=       0
 node=  4582 local x,y,z forces =   -1.8332E-03   -1.0496E+04    0.0000E+00  setid=       0
 node=  4583 local x,y,z forces =    1.2213E+04   -1.0476E+04    0.0000E+00  setid=       0
 node=  4584 local x,y,z forces =    2.3849E+04   -1.0547E+04    0.0000E+00  setid=       0
 node=  4585 local x,y,z forces =    3.7378E+04   -5.3510E+03    0.0000E+00  setid=       0
 node=  4586 local x,y,z forces =   -3.7419E+04   -2.5266E+03    0.0000E+00  setid=       0
 node=  4587 local x,y,z forces =   -2.3928E+04   -4.9940E+03    0.0000E+00  setid=       0
 node=  4588 local x,y,z forces =   -1.2308E+04   -4.9565E+03    0.0000E+00  setid=       0
 node=  4589 local x,y,z forces =   -1.7986E-03   -4.9583E+03    0.0000E+00  setid=       0
 node=  4590 local x,y,z forces =    1.2308E+04   -4.9565E+03    0.0000E+00  setid=       0
 node=  4591 local x,y,z forces =    2.3928E+04   -4.9940E+03    0.0000E+00  setid=       0
 node=  4592 local x,y,z forces =    3.7418E+04   -2.5266E+03    0.0000E+00  setid=       0
 node=  4593 local x,y,z forces =   -3.7386E+04    9.2885E+01    0.0000E+00  setid=       0
 node=  4594 local x,y,z forces =   -2.3931E+04    1.4012E+02    0.0000E+00  setid=       0
 node=  4595 local x,y,z forces =   -1.2325E+04    1.1074E+02    0.0000E+00  setid=       0
 node=  4596 local x,y,z forces =   -1.7867E-03    1.0477E+02    0.0000E+00  setid=       0
 node=  4597 local x,y,z forces =    1.2325E+04    1.1074E+02    0.0000E+00  setid=       0
 node=  4598 local x,y,z forces =    2.3931E+04    1.4012E+02    0.0000E+00  setid=       0
 node=  4599 local x,y,z forces =    3.7386E+04    9.2885E+01    0.0000E+00  setid=       0
 node=  4600 local x,y,z forces =   -3.7309E+04    2.7060E+03    0.0000E+00  setid=       0
 node=  4601 local x,y,z forces =   -2.3857E+04    5.2622E+03    0.0000E+00  setid=       0
 node=  4602 local x,y,z forces =   -1.2272E+04    5.1663E+03    0.0000E+00  setid=       0
 node=  4603 local x,y,z forces =   -1.7924E-03    5.1561E+03    0.0000E+00  setid=       0
 node=  4604 local x,y,z forces =    1.2272E+04    5.1663E+03    0.0000E+00  setid=       0
 node=  4605 local x,y,z forces =    2.3858E+04    5.2622E+03    0.0000E+00  setid=       0
 node=  4606 local x,y,z forces =    3.7309E+04    2.7060E+03    0.0000E+00  setid=       0
 node=  4607 local x,y,z forces =   -3.7159E+04    5.5095E+03    0.0000E+00  setid=       0
 node=  4608 local x,y,z forces =   -2.3709E+04    1.0775E+04    0.0000E+00  setid=       0
 node=  4609 local x,y,z forces =   -1.2142E+04    1.0646E+04    0.0000E+00  setid=       0
 node=  4610 local x,y,z forces =   -1.8206E-03    1.0654E+04    0.0000E+00  setid=       0
 node=  4611 local x,y,z forces =    1.2142E+04    1.0646E+04    0.0000E+00  setid=       0
 node=  4612 local x,y,z forces =    2.3709E+04    1.0775E+04    0.0000E+00  setid=       0
 node=  4613 local x,y,z forces =    3.7159E+04    5.5095E+03    0.0000E+00  setid=       0
 node=  4614 local x,y,z forces =   -3.7054E+04    8.4530E+03    0.0000E+00  setid=       0
 node=  4615 local x,y,z forces =   -2.3470E+04    1.6662E+04    0.0000E+00  setid=       0
 node=  4616 local x,y,z forces =   -1.1924E+04    1.6612E+04    0.0000E+00  setid=       0
 node=  4617 local x,y,z forces =   -1.8621E-03    1.6676E+04    0.0000E+00  setid=       0
 node=  4618 local x,y,z forces =    1.1924E+04    1.6612E+04    0.0000E+00  setid=       0
 node=  4619 local x,y,z forces =    2.3470E+04    1.6662E+04    0.0000E+00  setid=       0
 node=  4620 local x,y,z forces =    3.7054E+04    8.4530E+03    0.0000E+00  setid=       0
 node=  4621 local x,y,z forces =   -3.6826E+04    1.2758E+04    0.0000E+00  setid=       0
 node=  4622 local x,y,z forces =   -2.3262E+04    2.5340E+04    0.0000E+00  setid=       0
 node=  4623 local x,y,z forces =   -1.1628E+04    2.5431E+04    0.0000E+00  setid=       0
 node=  4624 local x,y,z forces =   -1.9864E-03    2.5609E+04    0.0000E+00  setid=       0
 node=  4625 local x,y,z forces =    1.1628E+04    2.5431E+04    0.0000E+00  setid=       0
 node=  4626 local x,y,z forces =    2.3262E+04    2.5340E+04    0.0000E+00  setid=       0
 node=  4627 local x,y,z forces =    3.6826E+04    1.2758E+04    0.0000E+00  setid=       0
 node=  4628 local x,y,z forces =   -3.8007E+04    1.6749E+04    0.0000E+00  setid=       0
 node=  4629 local x,y,z forces =   -2.3361E+04    3.3267E+04    0.0000E+00  setid=       0
 node=  4630 local x,y,z forces =   -1.1466E+04    3.3117E+04    0.0000E+00  setid=       0
 node=  4631 local x,y,z forces =   -2.7960E-03    3.3205E+04    0.0000E+00  setid=       0
 node=  4632 local x,y,z forces =    1.1466E+04    3.3117E+04    0.0000E+00  setid=       0
 node=  4633 local x,y,z forces =    2.3361E+04    3.3267E+04    0.0000E+00  setid=       0
 node=  4634 local x,y,z forces =    3.8007E+04    1.6749E+04    0.0000E+00  setid=       0
 node=  4635 local x,y,z forces =   -1.8824E+04    2.2109E+04    0.0000E+00  setid=       0
 node=  4636 local x,y,z forces =   -1.1777E+04    4.4635E+04    0.0000E+00  setid=       0
 node=  4637 local x,y,z forces =   -5.7455E+03    4.3973E+04    0.0000E+00  setid=       0
 node=  4638 local x,y,z forces =   -1.7685E-03    4.4428E+04    0.0000E+00  setid=       0
 node=  4639 local x,y,z forces =    5.7455E+03    4.3973E+04    0.0000E+00  setid=       0
 node=  4640 local x,y,z forces =    1.1777E+04    4.4635E+04    0.0000E+00  setid=       0
 node=  4641 local x,y,z forces =    1.8824E+04    2.2109E+04    0.0000E+00  setid=       0
             force resultants   =   -8.8188E-08    6.9310E-01   -1.2310E+07
 output at time =   6.00000E-04
 node=     1 local x,y,z forces =   -2.8660E+04   -3.3534E+04   -1.1087E+05  setid=       0
 node=     2 local x,y,z forces =   -1.7960E+04   -6.7761E+04   -1.8378E+05  setid=       0
 node=     3 local x,y,z forces =   -8.7672E+03   -6.6795E+04   -1.7907E+05  setid=       0
 node=     4 local x,y,z forces =   -2.7022E-03   -6.7499E+04   -1.7960E+05  setid=       0
 node=     5 local x,y,z forces =    8.7672E+03   -6.6795E+04   -1.7907E+05  setid=       0
 node=     6 local x,y,z forces =    1.7960E+04   -6.7761E+04   -1.8378E+05  setid=       0
 node=     7 local x,y,z forces =    2.8660E+04   -3.3534E+04   -1.1087E+05  setid=       0
 node=     8 local x,y,z forces =   -5.7805E+04   -2.5215E+04   -1.6889E+05  setid=       0
 node=     9 local x,y,z forces =   -3.5562E+04   -5.0183E+04   -2.6108E+05  setid=       0
 node=    10 local x,y,z forces =   -1.7461E+04   -5.0019E+04   -2.5080E+05  setid=       0
 node=    11 local x,y,z forces =   -4.2706E-03   -5.0165E+04   -2.5157E+05  setid=       0
 node=    12 local x,y,z forces =    1.7461E+04   -5.0019E+04   -2.5080E+05  setid=       0
 node=    13 local x,y,z forces =    3.5562E+04   -5.0183E+04   -2.6108E+05  setid=       0
 node=    14 local x,y,z forces =    5.7805E+04   -2.5215E+04   -1.6889E+05  setid=       0
 node=    15 local x,y,z forces =   -5.5886E+04   -1.9065E+04   -1.5789E+05  setid=       0
 node=    16 local x,y,z forces =   -3.5310E+04   -3.7988E+04   -2.3846E+05  setid=       0
 node=    17 local x,y,z forces =   -1.7653E+04   -3.8207E+04   -2.2756E+05  setid=       0
 node=    18 local x,y,z forces =   -3.0250E-03   -3.8496E+04   -2.2842E+05  setid=       0
 node=    19 local x,y,z forces =    1.7653E+04   -3.8208E+04   -2.2756E+05  setid=       0
 node=    20 local x,y,z forces =    3.5310E+04   -3.7988E+04   -2.3846E+05  setid=       0
 node=    21 local x,y,z forces =    5.5886E+04   -1.9065E+04   -1.5789E+05  setid=       0
 node=    22 local x,y,z forces =   -5.6076E+04   -1.2497E+04   -1.5661E+05  setid=       0
 node=    23 local x,y,z forces =   -3.5523E+04   -2.4757E+04   -2.3538E+05  setid=       0
 node=    24 local x,y,z forces =   -1.8049E+04   -2.4767E+04   -2.2456E+05  setid=       0
 node=    25 local x,y,z forces =   -2.8257E-03   -2.4882E+04   -2.2566E+05  setid=       0
 node=    26 local x,y,z forces =    1.8049E+04   -2.4767E+04   -2.2456E+05  setid=       0
 node=    27 local x,y,z forces =    3.5523E+04   -2.4757E+04   -2.3538E+05  setid=       0
 node=    28 local x,y,z forces =    5.6076E+04   -1.2497E+04   -1.5661E+05  setid=       0
 node=    29 local x,y,z forces =   -5.6071E+04   -8.0250E+03   -1.5572E+05  setid=       0
 node=    30 local x,y,z forces =   -3.5777E+04   -1.5819E+04   -2.3312E+05  setid=       0
 node=    31 local x,y,z forces =   -1.8324E+04   -1.5712E+04   -2.2224E+05  setid=       0
 node=    32 local x,y,z forces =   -2.7529E-03   -1.5742E+04   -2.2343E+05  setid=       0
 node=    33 local x,y,z forces =    1.8324E+04   -1.5712E+04   -2.2224E+05  setid=       0
 node=    34 local x,y,z forces =    3.5777E+04   -1.5819E+04   -2.3312E+05  setid=       0
 node=    35 local x,y,z forces =    5.6071E+04   -8.0250E+03   -1.5572E+05  setid=       0
 node=    36 local x,y,z forces =   -5.6129E+04   -3.7869E+03   -1.5543E+05  setid=       0
 node=    37 local x,y,z forces =   -3.5894E+04   -7.4864E+03   -2.3225E+05  setid=       0
 node=    38 local x,y,z forces =   -1.8466E+04   -7.4312E+03   -2.2129E+05  setid=       0
 node=    39 local x,y,z forces =   -2.7008E-03   -7.4340E+03   -2.2251E+05  setid=       0
 node=    40 local x,y,z forces =    1.8466E+04   -7.4312E+03   -2.2129E+05  setid=       0
 node=    41 local x,y,z forces =    3.5894E+04   -7.4864E+03   -2.3225E+05  setid=       0
 node=    42 local x,y,z forces =    5.6129E+04   -3.7869E+03   -1.5543E+05  setid=       0
 node=    43 local x,y,z forces =   -5.6077E+04    1.4334E+02   -1.5516E+05  setid=       0
 node=    44 local x,y,z forces =   -3.5897E+04    2.1612E+02   -2.3170E+05  setid=       0
 node=    45 local x,y,z forces =   -1.8490E+04    1.7074E+02   -2.2072E+05  setid=       0
 node=    46 local x,y,z forces =   -2.6828E-03    1.6153E+02   -2.2194E+05  setid=       0
 node=    47 local x,y,z forces =    1.8490E+04    1.7074E+02   -2.2072E+05  setid=       0
 node=    48 local x,y,z forces =    3.5897E+04    2.1612E+02   -2.3170E+05  setid=       0
 node=    49 local x,y,z forces =    5.6077E+04    1.4334E+02   -1.5516E+05  setid=       0
 node=    50 local x,y,z forces =   -5.5960E+04    4.0639E+03   -1.5496E+05  setid=       0
 node=    51 local x,y,z forces =   -3.5785E+04    7.9001E+03   -2.3154E+05  setid=       0
 node=    52 local x,y,z forces =   -1.8410E+04    7.7547E+03   -2.2061E+05  setid=       0
 node=    53 local x,y,z forces =   -2.6912E-03    7.7391E+03   -2.2182E+05  setid=       0
 node=    54 local x,y,z forces =    1.8410E+04    7.7547E+03   -2.2061E+05  setid=       0
 node=    55 local x,y,z forces =    3.5785E+04    7.9001E+03   -2.3154E+05  setid=       0
 node=    56 local x,y,z forces =    5.5960E+04    4.0639E+03   -1.5496E+05  setid=       0
 node=    57 local x,y,z forces =   -5.5734E+04    8.2697E+03   -1.5477E+05  setid=       0
 node=    58 local x,y,z forces =   -3.5560E+04    1.6170E+04   -2.3169E+05  setid=       0
 node=    59 local x,y,z forces =   -1.8214E+04    1.5975E+04   -2.2087E+05  setid=       0
 node=    60 local x,y,z forces =   -2.7333E-03    1.5986E+04   -2.2205E+05  setid=       0
 node=    61 local x,y,z forces =    1.8214E+04    1.5975E+04   -2.2087E+05  setid=       0
 node=    62 local x,y,z forces =    3.5560E+04    1.6170E+04   -2.3169E+05  setid=       0
 node=    63 local x,y,z forces =    5.5734E+04    8.2697E+03   -1.5477E+05  setid=       0
 node=    64 local x,y,z forces =   -5.5573E+04    1.2684E+04   -1.5519E+05  setid=       0
 node=    65 local x,y,z forces =   -3.5202E+04    2.4999E+04   -2.3322E+05  setid=       0
 node=    66 local x,y,z forces =   -1.7887E+04    2.4923E+04   -2.2249E+05  setid=       0
 node=    67 local x,y,z forces =   -2.7954E-03    2.5018E+04   -2.2357E+05  setid=       0
 node=    68 local x,y,z forces =    1.7887E+04    2.4923E+04   -2.2249E+05  setid=       0
 node=    69 local x,y,z forces =    3.5202E+04    2.4999E+04   -2.3322E+05  setid=       0
 node=    70 local x,y,z forces =    5.5573E+04    1.2684E+04   -1.5519E+05  setid=       0
 node=    71 local x,y,z forces =   -5.5229E+04    1.9141E+04   -1.5600E+05  setid=       0
 node=    72 local x,y,z forces =   -3.4888E+04    3.8015E+04   -2.3558E+05  setid=       0
 node=    73 local x,y,z forces =   -1.7442E+04    3.8149E+04   -2.2480E+05  setid=       0
 node=    74 local x,y,z forces =   -2.9815E-03    3.8416E+04   -2.2563E+05  setid=       0
 node=    75 local x,y,z forces =    1.7442E+04    3.8149E+04   -2.2480E+05  setid=       0
 node=    76 local x,y,z forces =    3.4888E+04    3.8015E+04   -2.3558E+05  setid=       0
 node=    77 local x,y,z forces =    5.5229E+04    1.9141E+04   -1.5600E+05  setid=       0
 node=    78 local x,y,z forces =   -5.6998E+04    2.5122E+04   -1.6650E+05  setid=       0
 node=    79 local x,y,z forces =   -3.5038E+04    4.9896E+04   -2.5736E+05  setid=       0
 node=    80 local x,y,z forces =   -1.7199E+04    4.9667E+04   -2.4718E+05  setid=       0
 node=    81 local x,y,z forces =   -4.1957E-03    4.9799E+04   -2.4792E+05  setid=       0
 node=    82 local x,y,z forces =    1.7199E+04    4.9667E+04   -2.4718E+05  setid=       0
 node=    83 local x,y,z forces =    3.5038E+04    4.9896E+04   -2.5736E+05  setid=       0
 node=    84 local x,y,z forces =    5.6998E+04    2.5122E+04   -1.6650E+05  setid=       0
 node=    85 local x,y,z forces =   -2.8226E+04    3.3151E+04   -1.0929E+05  setid=       0
 node=    86 local x,y,z forces =   -1.7664E+04    6.6933E+04   -1.8116E+05  setid=       0
 node=    87 local x,y,z forces =   -8.6184E+03    6.5942E+04   -1.7645E+05  setid=       0
 node=    88 local x,y,z forces =   -2.6536E-03    6.6623E+04   -1.7695E+05  setid=       0
 node=    89 local x,y,z forces =    8.6184E+03    6.5942E+04   -1.7645E+05  setid=       0
 node=    90 local x,y,z forces =    1.7664E+04    6.6933E+04   -1.8116E+05  setid=       0
 node=    91 local x,y,z forces =    2.8226E+04    3.3151E+04   -1.0929E+05  setid=       0
 node=  2227 local x,y,z forces =   -2.5475E+05    0.0000E+00    0.0000E+00  setid=       3
 node=  2233 local x,y,z forces =    2.5475E+05    0.0000E+00    0.0000E+00  setid=       3
 node=  2318 local x,y,z forces =   -3.7838E+05    0.0000E+00    0.0000E+00  setid=       3
 node=  2324 local x,y,z forces =    3.7838E+05    0.0000E+00    0.0000E+00  setid=       3
 node=  2409 local x,y,z forces =   -2.5475E+05    0.0000E+00    0.0000E+00  setid=       3
 node=  2415 local x,y,z forces =    2.5475E+05    0.0000E+00    0.0000E+00  setid=       3
 node=  4551 local x,y,z forces =   -2.8660E+04   -3.3534E+04    0.0000E+00  setid=       0
 node=  4552 local x,y,z forces =   -1.7960E+04   -6.7761E+04    0.0000E+00  setid=       0
 node=  4553 local x,y,z forces =   -8.7672E+03   -6.6795E+04    0.0000E+00  setid=       0
 node=  4554 local x,y,z forces =   -2.7022E-03   -6.7499E+04    0.0000E+00  setid=       0
 node=  4555 local x,y,z forces =    8.7672E+03   -6.6795E+04    0.0000E+00  setid=       0
 node=  4556 local x,y,z forces =    1.7960E+04   -6.7761E+04    0.0000E+00  setid=       0
 node=  4557 local x,y,z forces =    2.8660E+04   -3.3534E+04    0.0000E+00  setid=       0
 node=  4558 local x,y,z forces =   -5.7805E+04   -2.5215E+04    0.0000E+00  setid=       0
 node=  4559 local x,y,z forces =   -3.5562E+04   -5.0183E+04    0.0000E+00  setid=       0
 node=  4560 local x,y,z forces =   -1.7461E+04   -5.0019E+04    0.0000E+00  setid=       0
 node=  4561 local x,y,z forces =   -4.2706E-03   -5.0165E+04    0.0000E+00  setid=       0
 node=  4562 local x,y,z forces =    1.7461E+04   -5.0019E+04    0.0000E+00  setid=       0
 node=  4563 local x,y,z forces =    3.5562E+04   -5.0183E+04    0.0000E+00  setid=       0
 node=  4564 local x,y,z forces =    5.7805E+04   -2.5215E+04    0.0000E+00  setid=       0
 node=  4565 local x,y,z forces =   -5.5886E+04   -1.9065E+04    0.0000E+00  setid=       0
 node=  4566 local x,y,z forces =   -3.5310E+04   -3.7988E+04    0.0000E+00  setid=       0
 node=  4567 local x,y,z forces =   -1.7653E+04   -3.8207E+04    0.0000E+00  setid=       0
 node=  4568 local x,y,z forces =   -3.0250E-03   -3.8496E+04    0.0000E+00  setid=       0
 node=  4569 local x,y,z forces =    1.7653E+04   -3.8208E+04    0.0000E+00  setid=       0
 node=  4570 local x,y,z forces =    3.5310E+04   -3.7988E+04    0.0000E+00  setid=       0
 node=  4571 local x,y,z forces =    5.5886E+04   -1.9065E+04    0.0000E+00  setid=       0
 node=  4572 local x,y,z forces =   -5.6076E+04   -1.2497E+04    0.0000E+00  setid=       0
 node=  4573 local x,y,z forces =   -3.5523E+04   -2.4757E+04    0.0000E+00  setid=       0
 node=  4574 local x,y,z forces =   -1.8049E+04   -2.4767E+04    0.0000E+00  setid=       0
 node=  4575 local x,y,z forces =   -2.8257E-03   -2.4882E+04    0.0000E+00  setid=       0
 node=  4576 local x,y,z forces =    1.8049E+04   -2.4767E+04    0.0000E+00  setid=       0
 node=  4577 local x,y,z forces =    3.5523E+04   -2.4757E+04    0.0000E+00  setid=       0
 node=  4578 local x,y,z forces =    5.6076E+04   -1.2497E+04    0.0000E+00  setid=       0
 node=  4579 local x,y,z forces =   -5.6071E+04   -8.0250E+03    0.0000E+00  setid=       0
 node=  4580 local x,y,z forces =   -3.5777E+04   -1.5819E+04    0.0000E+00  setid=       0
 node=  4581 local x,y,z forces =   -1.8324E+04   -1.5712E+04    0.0000E+00  setid=       0
 node=  4582 local x,y,z forces =   -2.7529E-03   -1.5742E+04    0.0000E+00  setid=       0
 node=  4583 local x,y,z forces =    1.8324E+04   -1.5712E+04    0.0000E+00  setid=       0
 node=  4584 local x,y,z forces =    3.5777E+04   -1.5819E+04    0.0000E+00  setid=       0
 node=  4585 local x,y,z forces =    5.6071E+04   -8.0250E+03    0.0000E+00  setid=       0
 node=  4586 local x,y,z forces =   -5.6129E+04   -3.7869E+03    0.0000E+00  setid=       0
 node=  4587 local x,y,z forces =   -3.5894E+04   -7.4864E+03    0.0000E+00  setid=       0
 node=  4588 local x,y,z forces =   -1.8466E+04   -7.4312E+03    0.0000E+00  setid=       0
 node=  4589 local x,y,z forces =   -2.7008E-03   -7.4340E+03    0.0000E+00  setid=       0
 node=  4590 local x,y,z forces =    1.8466E+04   -7.4312E+03    0.0000E+00  setid=       0
 node=  4591 local x,y,z forces =    3.5894E+04   -7.4864E+03    0.0000E+00  setid=       0
 node=  4592 local x,y,z forces =    5.6129E+04   -3.7869E+03    0.0000E+00  setid=       0
 node=  4593 local x,y,z forces =   -5.6077E+04    1.4334E+02    0.0000E+00  setid=       0
 node=  4594 local x,y,z forces =   -3.5897E+04    2.1612E+02    0.0000E+00  setid=       0
 node=  4595 local x,y,z forces =   -1.8490E+04    1.7074E+02    0.0000E+00  setid=       0
 node=  4596 local x,y,z forces =   -2.6828E-03    1.6153E+02    0.0000E+00  setid=       0
 node=  4597 local x,y,z forces =    1.8490E+04    1.7074E+02    0.0000E+00  setid=       0
 node=  4598 local x,y,z forces =    3.5897E+04    2.1612E+02    0.0000E+00  setid=       0
 node=  4599 local x,y,z forces =    5.6077E+04    1.4334E+02    0.0000E+00  setid=       0
 node=  4600 local x,y,z forces =   -5.5960E+04    4.0639E+03    0.0000E+00  setid=       0
 node=  4601 local x,y,z forces =   -3.5785E+04    7.9001E+03    0.0000E+00  setid=       0
 node=  4602 local x,y,z forces =   -1.8410E+04    7.7547E+03    0.0000E+00  setid=       0
 node=  4603 local x,y,z forces =   -2.6912E-03    7.7391E+03    0.0000E+00  setid=       0
 node=  4604 local x,y,z forces =    1.8410E+04    7.7547E+03    0.0000E+00  setid=       0
 node=  4605 local x,y,z forces =    3.5785E+04    7.9001E+03    0.0000E+00  setid=       0
 node=  4606 local x,y,z forces =    5.5960E+04    4.0639E+03    0.0000E+00  setid=       0
 node=  4607 local x,y,z forces =   -5.5734E+04    8.2697E+03    0.0000E+00  setid=       0
 node=  4608 local x,y,z forces =   -3.5560E+04    1.6170E+04    0.0000E+00  setid=       0
 node=  4609 local x,y,z forces =   -1.8214E+04    1.5975E+04    0.0000E+00  setid=       0
 node=  4610 local x,y,z forces =   -2.7333E-03    1.5986E+04    0.0000E+00  setid=       0
 node=  4611 local x,y,z forces =    1.8214E+04    1.5975E+04    0.0000E+00  setid=       0
 node=  4612 local x,y,z forces =    3.5560E+04    1.6170E+04    0.0000E+00  setid=       0
 node=  4613 local x,y,z forces =    5.5734E+04    8.2697E+03    0.0000E+00  setid=       0
 node=  4614 local x,y,z forces =   -5.5573E+04    1.2684E+04    0.0000E+00  setid=       0
 node=  4615 local x,y,z forces =   -3.5202E+04    2.4999E+04    0.0000E+00  setid=       0
 node=  4616 local x,y,z forces =   -1.7887E+04    2.4923E+04    0.0000E+00  setid=       0
 node=  4617 local x,y,z forces =   -2.7954E-03    2.5018E+04    0.0000E+00  setid=       0
 node=  4618 local x,y,z forces =    1.7887E+04    2.4923E+04    0.0000E+00  setid=       0
 node=  4619 local x,y,z forces =    3.5202E+04    2.4999E+04    0.0000E+00  setid=       0
 node=  4620 local x,y,z forces =    5.5573E+04    1.2684E+04    0.0000E+00  setid=       0
 node=  4621 local x,y,z forces =   -5.5229E+04    1.9141E+04    0.0000E+00  setid=       0
 node=  4622 local x,y,z forces =   -3.4888E+04    3.8015E+04    0.0000E+00  setid=       0
 node=  4623 local x,y,z forces =   -1.7442E+04    3.8149E+04    0.0000E+00  setid=       0
 node=  4624 local x,y,z forces =   -2.9815E-03    3.8416E+04    0.0000E+00  setid=       0
 node=  4625 local x,y,z forces =    1.7442E+04    3.8149E+04    0.0000E+00  setid=       0
 node=  4626 local x,y,z forces =    3.4888E+04    3.8015E+04    0.0000E+00  setid=       0
 node=  4627 local x,y,z forces =    5.5229E+04    1.9141E+04    0.0000E+00  setid=       0
 node=  4628 local x,y,z forces =   -5.6998E+04    2.5122E+04    0.0000E+00  setid=       0
 node=  4629 local x,y,z forces =   -3.5038E+04    4.9896E+04    0.0000E+00  setid=       0
 node=  4630 local x,y,z forces =   -1.7199E+04    4.9667E+04    0.0000E+00  setid=       0
 node=  4631 local x,y,z forces =   -4.1957E-03    4.9799E+04    0.0000E+00  setid=       0
 node=  4632 local x,y,z forces =    1.7199E+04    4.9667E+04    0.0000E+00  setid=       0
 node=  4633 local x,y,z forces =    3.5038E+04    4.9896E+04    0.0000E+00  setid=       0
 node=  4634 local x,y,z forces =    5.6998E+04    2.5122E+04    0.0000E+00  setid=       0
 node=  4635 local x,y,z forces =   -2.8226E+04    3.3151E+04    0.0000E+00  setid=       0
 node=  4636 local x,y,z forces =   -1.7664E+04    6.6933E+04    0.0000E+00  setid=       0
 node=  4637 local x,y,z forces =   -8.6184E+03    6.5942E+04    0.0000E+00  setid=       0
 node=  4638 local x,y,z forces =   -2.6536E-03    6.6623E+04    0.0000E+00  setid=       0
 node=  4639 local x,y,z forces =    8.6184E+03    6.5942E+04    0.0000E+00  setid=       0
 node=  4640 local x,y,z forces =    1.7664E+04    6.6933E+04    0.0000E+00  setid=       0
 node=  4641 local x,y,z forces =    2.8226E+04    3.3151E+04    0.0000E+00  setid=       0
             force resultants   =   -1.9750E-07    1.6591E+00   -1.8476E+07
 output at time =   8.00000E-04
 node=     1 local x,y,z forces =   -3.8216E+04   -4.4709E+04   -1.4800E+05  setid=       0
 node=     2 local x,y,z forces =   -2.3955E+04   -9.0353E+04   -2.4529E+05  setid=       0
 node=     3 local x,y,z forces =   -1.1695E+04   -8.9067E+04   -2.3899E+05  setid=       0
 node=     4 local x,y,z forces =   -3.6060E-03   -9.0008E+04   -2.3970E+05  setid=       0
 node=     5 local x,y,z forces =    1.1695E+04   -8.9067E+04   -2.3899E+05  setid=       0
 node=     6 local x,y,z forces =    2.3956E+04   -9.0353E+04   -2.4529E+05  setid=       0
 node=     7 local x,y,z forces =    3.8216E+04   -4.4709E+04   -1.4800E+05  setid=       0
 node=     8 local x,y,z forces =   -7.7087E+04   -3.3623E+04   -2.2541E+05  setid=       0
 node=     9 local x,y,z forces =   -4.7431E+04   -6.6916E+04   -3.4837E+05  setid=       0
 node=    10 local x,y,z forces =   -2.3292E+04   -6.6694E+04   -3.3465E+05  setid=       0
 node=    11 local x,y,z forces =   -5.6995E-03   -6.6888E+04   -3.3567E+05  setid=       0
 node=    12 local x,y,z forces =    2.3292E+04   -6.6694E+04   -3.3465E+05  setid=       0
 node=    13 local x,y,z forces =    4.7431E+04   -6.6916E+04   -3.4837E+05  setid=       0
 node=    14 local x,y,z forces =    7.7087E+04   -3.3623E+04   -2.2541E+05  setid=       0
 node=    15 local x,y,z forces =   -7.4526E+04   -2.5423E+04   -2.1070E+05  setid=       0
 node=    16 local x,y,z forces =   -4.7090E+04   -5.0657E+04   -3.1816E+05  setid=       0
 node=    17 local x,y,z forces =   -2.3545E+04   -5.0950E+04   -3.0361E+05  setid=       0
 node=    18 local x,y,z forces =   -4.0377E-03   -5.1335E+04   -3.0474E+05  setid=       0
 node=    19 local x,y,z forces =    2.3545E+04   -5.0950E+04   -3.0361E+05  setid=       0
 node=    20 local x,y,z forces =    4.7090E+04   -5.0657E+04   -3.1816E+05  setid=       0
 node=    21 local x,y,z forces =    7.4526E+04   -2.5423E+04   -2.1070E+05  setid=       0
 node=    22 local x,y,z forces =   -7.4776E+04   -1.6662E+04   -2.0899E+05  setid=       0
 node=    23 local x,y,z forces =   -4.7371E+04   -3.3008E+04   -3.1404E+05  setid=       0
 node=    24 local x,y,z forces =   -2.4072E+04   -3.3023E+04   -2.9958E+05  setid=       0
 node=    25 local x,y,z forces =   -3.7718E-03   -3.3176E+04   -3.0105E+05  setid=       0
 node=    26 local x,y,z forces =    2.4072E+04   -3.3023E+04   -2.9959E+05  setid=       0
 node=    27 local x,y,z forces =    4.7371E+04   -3.3008E+04   -3.1404E+05  setid=       0
 node=    28 local x,y,z forces =    7.4776E+04   -1.6662E+04   -2.0899E+05  setid=       0
 node=    29 local x,y,z forces =   -7.4766E+04   -1.0698E+04   -2.0779E+05  setid=       0
 node=    30 local x,y,z forces =   -4.7707E+04   -2.1088E+04   -3.1100E+05  setid=       0
 node=    31 local x,y,z forces =   -2.4438E+04   -2.0947E+04   -2.9647E+05  setid=       0
 node=    32 local x,y,z forces =   -3.6746E-03   -2.0987E+04   -2.9806E+05  setid=       0
 node=    33 local x,y,z forces =    2.4438E+04   -2.0947E+04   -2.9647E+05  setid=       0
 node=    34 local x,y,z forces =    4.7707E+04   -2.1088E+04   -3.1100E+05  setid=       0
 node=    35 local x,y,z forces =    7.4766E+04   -1.0698E+04   -2.0779E+05  setid=       0
 node=    36 local x,y,z forces =   -7.4841E+04   -5.0451E+03   -2.0739E+05  setid=       0
 node=    37 local x,y,z forces =   -4.7861E+04   -9.9754E+03   -3.0983E+05  setid=       0
 node=    38 local x,y,z forces =   -2.4626E+04   -9.9032E+03   -2.9519E+05  setid=       0
 node=    39 local x,y,z forces =   -3.6049E-03   -9.9071E+03   -2.9682E+05  setid=       0
 node=    40 local x,y,z forces =    2.4626E+04   -9.9032E+03   -2.9519E+05  setid=       0
 node=    41 local x,y,z forces =    4.7861E+04   -9.9754E+03   -3.0983E+05  setid=       0
 node=    42 local x,y,z forces =    7.4841E+04   -5.0451E+03   -2.0739E+05  setid=       0
 node=    43 local x,y,z forces =   -7.4769E+04    1.9678E+02   -2.0702E+05  setid=       0
 node=    44 local x,y,z forces =   -4.7863E+04    2.9656E+02   -3.0907E+05  setid=       0
 node=    45 local x,y,z forces =   -2.4657E+04    2.3420E+02   -2.9441E+05  setid=       0
 node=    46 local x,y,z forces =   -3.5808E-03    2.2156E+02   -2.9604E+05  setid=       0
 node=    47 local x,y,z forces =    2.4657E+04    2.3420E+02   -2.9441E+05  setid=       0
 node=    48 local x,y,z forces =    4.7863E+04    2.9656E+02   -3.0907E+05  setid=       0
 node=    49 local x,y,z forces =    7.4768E+04    1.9678E+02   -2.0702E+05  setid=       0
 node=    50 local x,y,z forces =   -7.4608E+04    5.4253E+03   -2.0674E+05  setid=       0
 node=    51 local x,y,z forces =   -4.7712E+04    1.0543E+04   -3.0884E+05  setid=       0
 node=    52 local x,y,z forces =   -2.4550E+04    1.0347E+04   -2.9424E+05  setid=       0
 node=    53 local x,y,z forces =   -3.5917E-03    1.0326E+04   -2.9587E+05  setid=       0
 node=    54 local x,y,z forces =    2.4550E+04    1.0347E+04   -2.9424E+05  setid=       0
 node=    55 local x,y,z forces =    4.7712E+04    1.0543E+04   -3.0884E+05  setid=       0
 node=    56 local x,y,z forces =    7.4608E+04    5.4253E+03   -2.0674E+05  setid=       0
 node=    57 local x,y,z forces =   -7.4303E+04    1.1034E+04   -2.0649E+05  setid=       0
 node=    58 local x,y,z forces =   -4.7410E+04    2.1570E+04   -3.0903E+05  setid=       0
 node=    59 local x,y,z forces =   -2.4287E+04    2.1307E+04   -2.9458E+05  setid=       0
 node=    60 local x,y,z forces =   -3.6476E-03    2.1322E+04   -2.9616E+05  setid=       0
 node=    61 local x,y,z forces =    2.4287E+04    2.1307E+04   -2.9458E+05  setid=       0
 node=    62 local x,y,z forces =    4.7410E+04    2.1570E+04   -3.0903E+05  setid=       0
 node=    63 local x,y,z forces =    7.4303E+04    1.1034E+04   -2.0649E+05  setid=       0
 node=    64 local x,y,z forces =   -7.4087E+04    1.6919E+04   -2.0703E+05  setid=       0
 node=    65 local x,y,z forces =   -4.6930E+04    3.3341E+04   -3.1107E+05  setid=       0
 node=    66 local x,y,z forces =   -2.3850E+04    3.3236E+04   -2.9673E+05  setid=       0
 node=    67 local x,y,z forces =   -3.7302E-03    3.3363E+04   -2.9818E+05  setid=       0
 node=    68 local x,y,z forces =    2.3850E+04    3.3236E+04   -2.9673E+05  setid=       0
 node=    69 local x,y,z forces =    4.6930E+04    3.3341E+04   -3.1107E+05  setid=       0
 node=    70 local x,y,z forces =    7.4087E+04    1.6919E+04   -2.0703E+05  setid=       0
 node=    71 local x,y,z forces =   -7.3624E+04    2.5528E+04   -2.0810E+05  setid=       0
 node=    72 local x,y,z forces =   -4.6511E+04    5.0694E+04   -3.1421E+05  setid=       0
 node=    73 local x,y,z forces =   -2.3256E+04    5.0869E+04   -2.9981E+05  setid=       0
 node=    74 local x,y,z forces =   -3.9778E-03    5.1225E+04   -3.0092E+05  setid=       0
 node=    75 local x,y,z forces =    2.3256E+04    5.0869E+04   -2.9981E+05  setid=       0
 node=    76 local x,y,z forces =    4.6511E+04    5.0694E+04   -3.1421E+05  setid=       0
 node=    77 local x,y,z forces =    7.3624E+04    2.5528E+04   -2.0810E+05  setid=       0
 node=    78 local x,y,z forces =   -7.5980E+04    3.3495E+04   -2.2213E+05  setid=       0
 node=    79 local x,y,z forces =   -4.6713E+04    6.6522E+04   -3.4327E+05  setid=       0
 node=    80 local x,y,z forces =   -2.2931E+04    6.6211E+04   -3.2968E+05  setid=       0
 node=    81 local x,y,z forces =   -5.5966E-03    6.6385E+04   -3.3067E+05  setid=       0
 node=    82 local x,y,z forces =    2.2931E+04    6.6211E+04   -3.2968E+05  setid=       0
 node=    83 local x,y,z forces =    4.6713E+04    6.6522E+04   -3.4327E+05  setid=       0
 node=    84 local x,y,z forces =    7.5980E+04    3.3495E+04   -2.2213E+05  setid=       0
 node=    85 local x,y,z forces =   -3.7622E+04    4.4184E+04   -1.4583E+05  setid=       0
 node=    86 local x,y,z forces =   -2.3549E+04    8.9217E+04   -2.4168E+05  setid=       0
 node=    87 local x,y,z forces =   -1.1491E+04    8.7896E+04   -2.3539E+05  setid=       0
 node=    88 local x,y,z forces =   -3.5393E-03    8.8806E+04   -2.3606E+05  setid=       0
 node=    89 local x,y,z forces =    1.1491E+04    8.7897E+04   -2.3539E+05  setid=       0
 node=    90 local x,y,z forces =    2.3549E+04    8.9217E+04   -2.4169E+05  setid=       0
 node=    91 local x,y,z forces =    3.7622E+04    4.4184E+04   -1.4583E+05  setid=       0
 node=  2227 local x,y,z forces =   -3.3962E+05    0.0000E+00    0.0000E+00  setid=       3
 node=  2233 local x,y,z forces =    3.3962E+05    0.0000E+00    0.0000E+00  setid=       3
 node=  2318 local x,y,z forces =   -5.0443E+05    0.0000E+00    0.0000E+00  setid=       3
 node=  2324 local x,y,z forces =    5.0443E+05    0.0000E+00    0.0000E+00  setid=       3
 node=  2409 local x,y,z forces =   -3.3962E+05    0.0000E+00    0.0000E+00  setid=       3
 node=  2415 local x,y,z forces =    3.3962E+05    0.0000E+00    0.0000E+00  setid=       3
[...]
 node=  4617 local x,y,z forces =    5.6404E-02    4.5545E+05    0.0000E+00  setid=       0
 node=  4618 local x,y,z forces =   -2.6441E+05    5.1365E+05    0.0000E+00  setid=       0
 node=  4619 local x,y,z forces =   -5.3766E+05    7.7014E+05    0.0000E+00  setid=       0
 node=  4620 local x,y,z forces =   -8.3521E+05    5.7349E+05    0.0000E+00  setid=       0
 node=  4621 local x,y,z forces =    1.3191E+06    2.9993E+05    0.0000E+00  setid=       0
 node=  4622 local x,y,z forces =    8.4277E+05    2.5735E+05    0.0000E+00  setid=       0
 node=  4623 local x,y,z forces =    4.1328E+05    8.5286E+03    0.0000E+00  setid=       0
 node=  4624 local x,y,z forces =    8.9102E-02   -5.4316E+04    0.0000E+00  setid=       0
 node=  4625 local x,y,z forces =   -4.1328E+05    8.5286E+03    0.0000E+00  setid=       0
 node=  4626 local x,y,z forces =   -8.4277E+05    2.5735E+05    0.0000E+00  setid=       0
 node=  4627 local x,y,z forces =   -1.3191E+06    2.9993E+05    0.0000E+00  setid=       0
 node=  4628 local x,y,z forces =    1.7995E+06   -1.2288E+05    0.0000E+00  setid=       0
 node=  4629 local x,y,z forces =    1.1396E+06   -5.1993E+05    0.0000E+00  setid=       0
 node=  4630 local x,y,z forces =    5.6605E+05   -7.2569E+05    0.0000E+00  setid=       0
 node=  4631 local x,y,z forces =    1.5874E-01   -7.7494E+05    0.0000E+00  setid=       0
 node=  4632 local x,y,z forces =   -5.6605E+05   -7.2569E+05    0.0000E+00  setid=       0
 node=  4633 local x,y,z forces =   -1.1396E+06   -5.1993E+05    0.0000E+00  setid=       0
 node=  4634 local x,y,z forces =   -1.7995E+06   -1.2288E+05    0.0000E+00  setid=       0
 node=  4635 local x,y,z forces =    1.0032E+06   -8.9269E+05    0.0000E+00  setid=       0
 node=  4636 local x,y,z forces =    6.6229E+05   -1.9224E+06    0.0000E+00  setid=       0
 node=  4637 local x,y,z forces =    3.3272E+05   -2.0051E+06    0.0000E+00  setid=       0
 node=  4638 local x,y,z forces =    1.0321E-01   -2.0650E+06    0.0000E+00  setid=       0
 node=  4639 local x,y,z forces =   -3.3272E+05   -2.0051E+06    0.0000E+00  setid=       0
 node=  4640 local x,y,z forces =   -6.6229E+05   -1.9224E+06    0.0000E+00  setid=       0
 node=  4641 local x,y,z forces =   -1.0032E+06   -8.9269E+05    0.0000E+00  setid=       0
             force resultants   =   -2.0867E-04   -1.0165E+04   -2.3382E+08
 output at time =   2.00000E-02
 node=     1 local x,y,z forces =   -1.5041E+06   -1.2636E+06   -6.6870E+06  setid=       0
 node=     2 local x,y,z forces =   -1.0918E+06   -2.8455E+06   -1.0773E+07  setid=       0
 node=     3 local x,y,z forces =   -5.6065E+05   -2.9225E+06   -1.0661E+07  setid=       0
 node=     4 local x,y,z forces =   -1.9056E-01   -2.9988E+06   -1.0786E+07  setid=       0
 node=     5 local x,y,z forces =    5.6065E+05   -2.9225E+06   -1.0661E+07  setid=       0
 node=     6 local x,y,z forces =    1.0918E+06   -2.8455E+06   -1.0773E+07  setid=       0
 node=     7 local x,y,z forces =    1.5041E+06   -1.2636E+06   -6.6870E+06  setid=       0
 node=     8 local x,y,z forces =   -2.9230E+06   -4.0657E+05   -9.9264E+06  setid=       0
 node=     9 local x,y,z forces =   -1.9654E+06   -1.2053E+06   -1.4799E+07  setid=       0
 node=    10 local x,y,z forces =   -1.0070E+06   -1.3664E+06   -1.4263E+07  setid=       0
 node=    11 local x,y,z forces =   -2.9569E-01   -1.3997E+06   -1.4368E+07  setid=       0
 node=    12 local x,y,z forces =    1.0070E+06   -1.3664E+06   -1.4263E+07  setid=       0
 node=    13 local x,y,z forces =    1.9654E+06   -1.2053E+06   -1.4799E+07  setid=       0
 node=    14 local x,y,z forces =    2.9230E+06   -4.0657E+05   -9.9264E+06  setid=       0
 node=    15 local x,y,z forces =   -2.5447E+06    1.7749E+05   -8.0718E+06  setid=       0
 node=    16 local x,y,z forces =   -1.6479E+06   -1.1757E+05   -1.1839E+07  setid=       0
 node=    17 local x,y,z forces =   -8.4632E+05   -3.9433E+05   -1.1265E+07  setid=       0
 node=    18 local x,y,z forces =   -1.7728E-01   -4.5555E+05   -1.1322E+07  setid=       0
 node=    19 local x,y,z forces =    8.4632E+05   -3.9433E+05   -1.1265E+07  setid=       0
 node=    20 local x,y,z forces =    1.6479E+06   -1.1757E+05   -1.1839E+07  setid=       0
 node=    21 local x,y,z forces =    2.5447E+06    1.7749E+05   -8.0718E+06  setid=       0
 node=    22 local x,y,z forces =   -2.1249E+06    5.6271E+05   -6.4719E+06  setid=       0
 node=    23 local x,y,z forces =   -1.3570E+06    6.4786E+05   -9.4937E+06  setid=       0
 node=    24 local x,y,z forces =   -7.0371E+05    3.6470E+05   -9.0295E+06  setid=       0
 node=    25 local x,y,z forces =   -1.3000E-01    3.0883E+05   -9.0801E+06  setid=       0
 node=    26 local x,y,z forces =    7.0371E+05    3.6470E+05   -9.0295E+06  setid=       0
 node=    27 local x,y,z forces =    1.3570E+06    6.4786E+05   -9.4937E+06  setid=       0
 node=    28 local x,y,z forces =    2.1249E+06    5.6271E+05   -6.4719E+06  setid=       0
 node=    29 local x,y,z forces =   -1.6566E+06    7.3788E+05   -4.8855E+06  setid=       0
 node=    30 local x,y,z forces =   -1.0583E+06    1.0058E+06   -7.1607E+06  setid=       0
 node=    31 local x,y,z forces =   -5.5127E+05    7.2160E+05   -6.8044E+06  setid=       0
 node=    32 local x,y,z forces =   -9.2612E-02    6.6677E+05   -6.8442E+06  setid=       0
 node=    33 local x,y,z forces =    5.5127E+05    7.2160E+05   -6.8044E+06  setid=       0
 node=    34 local x,y,z forces =    1.0583E+06    1.0058E+06   -7.1607E+06  setid=       0
 node=    35 local x,y,z forces =    1.6566E+06    7.3788E+05   -4.8855E+06  setid=       0
 node=    36 local x,y,z forces =   -1.1726E+06    8.3442E+05   -3.3518E+06  setid=       0
 node=    37 local x,y,z forces =   -7.4547E+05    1.2080E+06   -4.9076E+06  setid=       0
 node=    38 local x,y,z forces =   -3.9041E+05    9.2315E+05   -4.6566E+06  setid=       0
 node=    39 local x,y,z forces =   -5.8897E-02    8.6830E+05   -4.6843E+06  setid=       0
 node=    40 local x,y,z forces =    3.9041E+05    9.2315E+05   -4.6566E+06  setid=       0
 node=    41 local x,y,z forces =    7.4547E+05    1.2080E+06   -4.9076E+06  setid=       0
 node=    42 local x,y,z forces =    1.1726E+06    8.3442E+05   -3.3518E+06  setid=       0
 node=    43 local x,y,z forces =   -6.7454E+05    8.5733E+05   -1.8572E+06  setid=       0
 node=    44 local x,y,z forces =   -4.2459E+05    1.2680E+06   -2.6974E+06  setid=       0
 node=    45 local x,y,z forces =   -2.2446E+05    9.8537E+05   -2.5482E+06  setid=       0
 node=    46 local x,y,z forces =   -2.8159E-02    9.2971E+05   -2.5630E+06  setid=       0
 node=    47 local x,y,z forces =    2.2446E+05    9.8537E+05   -2.5482E+06  setid=       0
 node=    48 local x,y,z forces =    4.2460E+05    1.2680E+06   -2.6974E+06  setid=       0
 node=    49 local x,y,z forces =    6.7454E+05    8.5733E+05   -1.8572E+06  setid=       0
 node=    50 local x,y,z forces =   -1.6920E+05    8.2393E+05   -4.0420E+05  setid=       0
 node=    51 local x,y,z forces =   -9.9599E+04    1.2192E+06   -5.2824E+05  setid=       0
 node=    52 local x,y,z forces =   -5.7047E+04    9.4214E+05   -4.7509E+05  setid=       0
 node=    53 local x,y,z forces =    7.4131E-04    8.8588E+05   -4.7672E+05  setid=       0
 node=    54 local x,y,z forces =    5.7047E+04    9.4214E+05   -4.7509E+05  setid=       0
 node=    55 local x,y,z forces =    9.9599E+04    1.2192E+06   -5.2824E+05  setid=       0
 node=    56 local x,y,z forces =    1.6920E+05    8.2393E+05   -4.0420E+05  setid=       0
 node=    57 local x,y,z forces =    3.3883E+05    7.3151E+05    1.0063E+06  setid=       0
 node=    58 local x,y,z forces =    2.2539E+05    1.0562E+06    1.6045E+06  setid=       0
 node=    59 local x,y,z forces =    1.0851E+05    7.8729E+05    1.5693E+06  setid=       0
 node=    60 local x,y,z forces =    2.8824E-02    7.3035E+05    1.5806E+06  setid=       0
 node=    61 local x,y,z forces =   -1.0851E+05    7.8729E+05    1.5693E+06  setid=       0
 node=    62 local x,y,z forces =   -2.2539E+05    1.0562E+06    1.6045E+06  setid=       0
 node=    63 local x,y,z forces =   -3.3883E+05    7.3151E+05    1.0063E+06  setid=       0
 node=    64 local x,y,z forces =    8.4670E+05    5.7575E+05    2.3791E+06  setid=       0
 node=    65 local x,y,z forces =    5.4572E+05    7.7193E+05    3.7196E+06  setid=       0
 node=    66 local x,y,z forces =    2.6838E+05    5.1345E+05    3.6075E+06  setid=       0
 node=    67 local x,y,z forces =    5.7119E-02    4.5474E+05    3.6316E+06  setid=       0
 node=    68 local x,y,z forces =   -2.6838E+05    5.1345E+05    3.6075E+06  setid=       0
 node=    69 local x,y,z forces =   -5.4572E+05    7.7193E+05    3.7196E+06  setid=       0
 node=    70 local x,y,z forces =   -8.4670E+05    5.7575E+05    2.3791E+06  setid=       0
 node=    71 local x,y,z forces =    1.3347E+06    2.9918E+05    3.6843E+06  setid=       0
 node=    72 local x,y,z forces =    8.5329E+05    2.5345E+05    5.7680E+06  setid=       0
 node=    73 local x,y,z forces =    4.1840E+05    2.6706E+03    5.5914E+06  setid=       0
 node=    74 local x,y,z forces =    9.0049E-02   -6.0751E+04    5.6271E+06  setid=       0
 node=    75 local x,y,z forces =   -4.1840E+05    2.6706E+03    5.5914E+06  setid=       0
 node=    76 local x,y,z forces =   -8.5329E+05    2.5345E+05    5.7680E+06  setid=       0
 node=    77 local x,y,z forces =   -1.3347E+06    2.9918E+05    3.6842E+06  setid=       0
 node=    78 local x,y,z forces =    1.8197E+06   -1.2768E+05    5.0191E+06  setid=       0
 node=    79 local x,y,z forces =    1.1524E+06   -5.3141E+05    8.0297E+06  setid=       0
 node=    80 local x,y,z forces =    5.7232E+05   -7.3896E+05    7.8913E+06  setid=       0
 node=    81 local x,y,z forces =    1.6028E-01   -7.8871E+05    7.9716E+06  setid=       0
 node=    82 local x,y,z forces =   -5.7232E+05   -7.3896E+05    7.8913E+06  setid=       0
 node=    83 local x,y,z forces =   -1.1524E+06   -5.3141E+05    8.0297E+06  setid=       0
 node=    84 local x,y,z forces =   -1.8197E+06   -1.2768E+05    5.0191E+06  setid=       0
 node=    85 local x,y,z forces =    1.0143E+06   -9.0403E+05    3.2885E+06  setid=       0
 node=    86 local x,y,z forces =    6.6945E+05   -1.9458E+06    5.5938E+06  setid=       0
 node=    87 local x,y,z forces =    3.3624E+05   -2.0290E+06    5.6602E+06  setid=       0
 node=    88 local x,y,z forces =    1.0421E-01   -2.0894E+06    5.7477E+06  setid=       0
 node=    89 local x,y,z forces =   -3.3624E+05   -2.0290E+06    5.6602E+06  setid=       0
 node=    90 local x,y,z forces =   -6.6945E+05   -1.9458E+06    5.5938E+06  setid=       0
 node=    91 local x,y,z forces =   -1.0143E+06   -9.0403E+05    3.2885E+06  setid=       0
 node=  2227 local x,y,z forces =   -3.2989E+06    0.0000E+00    0.0000E+00  setid=       3
 node=  2233 local x,y,z forces =    3.2989E+06    0.0000E+00    0.0000E+00  setid=       3
 node=  2318 local x,y,z forces =   -4.9018E+06    0.0000E+00    0.0000E+00  setid=       3
 node=  2324 local x,y,z forces =    4.9018E+06    0.0000E+00    0.0000E+00  setid=       3
 node=  2409 local x,y,z forces =   -3.2989E+06    0.0000E+00    0.0000E+00  setid=       3
 node=  2415 local x,y,z forces =    3.2989E+06    0.0000E+00    0.0000E+00  setid=       3
 node=  4551 local x,y,z forces =   -1.5036E+06   -1.2629E+06    0.0000E+00  setid=       0
 node=  4552 local x,y,z forces =   -1.0918E+06   -2.8440E+06    0.0000E+00  setid=       0
 node=  4553 local x,y,z forces =   -5.6065E+05   -2.9210E+06    0.0000E+00  setid=       0
 node=  4554 local x,y,z forces =   -1.9056E-01   -2.9974E+06    0.0000E+00  setid=       0
 node=  4555 local x,y,z forces =    5.6065E+05   -2.9210E+06    0.0000E+00  setid=       0
 node=  4556 local x,y,z forces =    1.0918E+06   -2.8440E+06    0.0000E+00  setid=       0
 node=  4557 local x,y,z forces =    1.5036E+06   -1.2629E+06    0.0000E+00  setid=       0
 node=  4558 local x,y,z forces =   -2.9219E+06   -4.0660E+05    0.0000E+00  setid=       0
 node=  4559 local x,y,z forces =   -1.9654E+06   -1.2054E+06    0.0000E+00  setid=       0
 node=  4560 local x,y,z forces =   -1.0070E+06   -1.3665E+06    0.0000E+00  setid=       0
 node=  4561 local x,y,z forces =   -2.9569E-01   -1.3997E+06    0.0000E+00  setid=       0
 node=  4562 local x,y,z forces =    1.0070E+06   -1.3665E+06    0.0000E+00  setid=       0
 node=  4563 local x,y,z forces =    1.9654E+06   -1.2054E+06    0.0000E+00  setid=       0
 node=  4564 local x,y,z forces =    2.9219E+06   -4.0660E+05    0.0000E+00  setid=       0
 node=  4565 local x,y,z forces =   -2.5436E+06    1.7746E+05    0.0000E+00  setid=       0
 node=  4566 local x,y,z forces =   -1.6479E+06   -1.1761E+05    0.0000E+00  setid=       0
 node=  4567 local x,y,z forces =   -8.4632E+05   -3.9437E+05    0.0000E+00  setid=       0
 node=  4568 local x,y,z forces =   -1.7728E-01   -4.5559E+05    0.0000E+00  setid=       0
 node=  4569 local x,y,z forces =    8.4632E+05   -3.9437E+05    0.0000E+00  setid=       0
 node=  4570 local x,y,z forces =    1.6479E+06   -1.1761E+05    0.0000E+00  setid=       0
 node=  4571 local x,y,z forces =    2.5436E+06    1.7746E+05    0.0000E+00  setid=       0
 node=  4572 local x,y,z forces =   -2.1237E+06    5.6269E+05    0.0000E+00  setid=       0
 node=  4573 local x,y,z forces =   -1.3571E+06    6.4783E+05    0.0000E+00  setid=       0
 node=  4574 local x,y,z forces =   -7.0372E+05    3.6466E+05    0.0000E+00  setid=       0
 node=  4575 local x,y,z forces =   -1.3000E-01    3.0880E+05    0.0000E+00  setid=       0
 node=  4576 local x,y,z forces =    7.0372E+05    3.6466E+05    0.0000E+00  setid=       0
 node=  4577 local x,y,z forces =    1.3571E+06    6.4783E+05    0.0000E+00  setid=       0
 node=  4578 local x,y,z forces =    2.1237E+06    5.6269E+05    0.0000E+00  setid=       0
 node=  4579 local x,y,z forces =   -1.6555E+06    7.3786E+05    0.0000E+00  setid=       0
 node=  4580 local x,y,z forces =   -1.0583E+06    1.0058E+06    0.0000E+00  setid=       0
 node=  4581 local x,y,z forces =   -5.5127E+05    7.2157E+05    0.0000E+00  setid=       0
 node=  4582 local x,y,z forces =   -9.2611E-02    6.6675E+05    0.0000E+00  setid=       0
 node=  4583 local x,y,z forces =    5.5127E+05    7.2157E+05    0.0000E+00  setid=       0
 node=  4584 local x,y,z forces =    1.0583E+06    1.0058E+06    0.0000E+00  setid=       0
 node=  4585 local x,y,z forces =    1.6555E+06    7.3786E+05    0.0000E+00  setid=       0
 node=  4586 local x,y,z forces =   -1.1715E+06    8.3440E+05    0.0000E+00  setid=       0
 node=  4587 local x,y,z forces =   -7.4548E+05    1.2080E+06    0.0000E+00  setid=       0
 node=  4588 local x,y,z forces =   -3.9041E+05    9.2312E+05    0.0000E+00  setid=       0
 node=  4589 local x,y,z forces =   -5.8897E-02    8.6828E+05    0.0000E+00  setid=       0
 node=  4590 local x,y,z forces =    3.9041E+05    9.2312E+05    0.0000E+00  setid=       0
 node=  4591 local x,y,z forces =    7.4548E+05    1.2080E+06    0.0000E+00  setid=       0
 node=  4592 local x,y,z forces =    1.1715E+06    8.3440E+05    0.0000E+00  setid=       0
 node=  4593 local x,y,z forces =   -6.7340E+05    8.5731E+05    0.0000E+00  setid=       0
 node=  4594 local x,y,z forces =   -4.2460E+05    1.2680E+06    0.0000E+00  setid=       0
 node=  4595 local x,y,z forces =   -2.2446E+05    9.8534E+05    0.0000E+00  setid=       0
 node=  4596 local x,y,z forces =   -2.8159E-02    9.2969E+05    0.0000E+00  setid=       0
 node=  4597 local x,y,z forces =    2.2446E+05    9.8534E+05    0.0000E+00  setid=       0
 node=  4598 local x,y,z forces =    4.2460E+05    1.2680E+06    0.0000E+00  setid=       0
 node=  4599 local x,y,z forces =    6.7340E+05    8.5731E+05    0.0000E+00  setid=       0
 node=  4600 local x,y,z forces =   -1.6806E+05    8.2392E+05    0.0000E+00  setid=       0
 node=  4601 local x,y,z forces =   -9.9600E+04    1.2192E+06    0.0000E+00  setid=       0
 node=  4602 local x,y,z forces =   -5.7048E+04    9.4212E+05    0.0000E+00  setid=       0
 node=  4603 local x,y,z forces =    7.4147E-04    8.8586E+05    0.0000E+00  setid=       0
 node=  4604 local x,y,z forces =    5.7048E+04    9.4212E+05    0.0000E+00  setid=       0
 node=  4605 local x,y,z forces =    9.9600E+04    1.2192E+06    0.0000E+00  setid=       0
 node=  4606 local x,y,z forces =    1.6806E+05    8.2392E+05    0.0000E+00  setid=       0
 node=  4607 local x,y,z forces =    3.3997E+05    7.3149E+05    0.0000E+00  setid=       0
 node=  4608 local x,y,z forces =    2.2540E+05    1.0561E+06    0.0000E+00  setid=       0
 node=  4609 local x,y,z forces =    1.0851E+05    7.8727E+05    0.0000E+00  setid=       0
 node=  4610 local x,y,z forces =    2.8824E-02    7.3033E+05    0.0000E+00  setid=       0
 node=  4611 local x,y,z forces =   -1.0851E+05    7.8727E+05    0.0000E+00  setid=       0
 node=  4612 local x,y,z forces =   -2.2540E+05    1.0561E+06    0.0000E+00  setid=       0
 node=  4613 local x,y,z forces =   -3.3997E+05    7.3149E+05    0.0000E+00  setid=       0
 node=  4614 local x,y,z forces =    8.4784E+05    5.7573E+05    0.0000E+00  setid=       0
 node=  4615 local x,y,z forces =    5.4573E+05    7.7191E+05    0.0000E+00  setid=       0
 node=  4616 local x,y,z forces =    2.6838E+05    5.1343E+05    0.0000E+00  setid=       0
 node=  4617 local x,y,z forces =    5.7119E-02    4.5472E+05    0.0000E+00  setid=       0
 node=  4618 local x,y,z forces =   -2.6838E+05    5.1343E+05    0.0000E+00  setid=       0
 node=  4619 local x,y,z forces =   -5.4573E+05    7.7191E+05    0.0000E+00  setid=       0
 node=  4620 local x,y,z forces =   -8.4784E+05    5.7573E+05    0.0000E+00  setid=       0
 node=  4621 local x,y,z forces =    1.3358E+06    2.9916E+05    0.0000E+00  setid=       0
 node=  4622 local x,y,z forces =    8.5330E+05    2.5342E+05    0.0000E+00  setid=       0
 node=  4623 local x,y,z forces =    4.1840E+05    2.6438E+03    0.0000E+00  setid=       0
 node=  4624 local x,y,z forces =    9.0050E-02   -6.0777E+04    0.0000E+00  setid=       0
 node=  4625 local x,y,z forces =   -4.1840E+05    2.6438E+03    0.0000E+00  setid=       0
 node=  4626 local x,y,z forces =   -8.5330E+05    2.5342E+05    0.0000E+00  setid=       0
 node=  4627 local x,y,z forces =   -1.3358E+06    2.9916E+05    0.0000E+00  setid=       0
 node=  4628 local x,y,z forces =    1.8208E+06   -1.2770E+05    0.0000E+00  setid=       0
 node=  4629 local x,y,z forces =    1.1524E+06   -5.3145E+05    0.0000E+00  setid=       0
 node=  4630 local x,y,z forces =    5.7232E+05   -7.3900E+05    0.0000E+00  setid=       0
 node=  4631 local x,y,z forces =    1.6028E-01   -7.8875E+05    0.0000E+00  setid=       0
 node=  4632 local x,y,z forces =   -5.7232E+05   -7.3900E+05    0.0000E+00  setid=       0
 node=  4633 local x,y,z forces =   -1.1525E+06   -5.3145E+05    0.0000E+00  setid=       0
 node=  4634 local x,y,z forces =   -1.8208E+06   -1.2770E+05    0.0000E+00  setid=       0
 node=  4635 local x,y,z forces =    1.0149E+06   -9.0480E+05    0.0000E+00  setid=       0
 node=  4636 local x,y,z forces =    6.6945E+05   -1.9474E+06    0.0000E+00  setid=       0
 node=  4637 local x,y,z forces =    3.3624E+05   -2.0305E+06    0.0000E+00  setid=       0
 node=  4638 local x,y,z forces =    1.0421E-01   -2.0910E+06    0.0000E+00  setid=       0
 node=  4639 local x,y,z forces =   -3.3624E+05   -2.0305E+06    0.0000E+00  setid=       0
 node=  4640 local x,y,z forces =   -6.6945E+05   -1.9474E+06    0.0000E+00  setid=       0
 node=  4641 local x,y,z forces =   -1.0148E+06   -9.0480E+05    0.0000E+00  setid=       0
             force resultants   =   -2.1112E-04   -1.0303E+04   -2.3385E+08
