 400x600                                                                 
                         ls-dyna smp.123264 d           date 01/12/2018

{BEGIN LEGEND}
 Entity #        Title
        0     bottom                                                                
        0     top                                                                   
        0     middle                                                                
{END LEGEND}

 single point constraint forces

 output at time =   0.00000E+00
 node=     1 local x,y,z forces =    0.0000E+00    0.0000E+00    0.0000E+00  setid=       0
 node=     2 local x,y,z forces =    0.0000E+00    0.0000E+00    0.0000E+00  setid=       0
 node=     3 local x,y,z forces =    0.0000E+00    0.0000E+00    0.0000E+00  setid=       0
 node=     4 local x,y,z forces =    0.0000E+00    0.0000E+00    0.0000E+00  setid=       0
 node=     5 local x,y,z forces =    0.0000E+00    0.0000E+00    0.0000E+00  setid=       0
 node=     6 local x,y,z forces =    0.0000E+00    0.0000E+00    0.0000E+00  setid=       0
 node=     7 local x,y,z forces =    0.0000E+00    0.0000E+00    0.0000E+00  setid=       0
 node=     8 local x,y,z forces =    0.0000E+00    0.0000E+00    0.0000E+00  setid=       0
 node=     9 local x,y,z forces =    0.0000E+00    0.0000E+00    0.0000E+00  setid=       0
 node=    10 local x,y,z forces =    0.0000E+00    0.0000E+00    0.0000E+00  setid=       0
 node=    11 local x,y,z forces =    0.0000E+00    0.0000E+00    0.0000E+00  setid=       0
 node=    12 local x,y,z forces =    0.0000E+00    0.0000E+00    0.0000E+00  setid=       0
 node=    13 local x,y,z forces =    0.0000E+00    0.0000E+00    0.0000E+00  setid=       0
 node=    14 local x,y,z forces =    0.0000E+00    0.0000E+00    0.0000E+00  setid=       0
 node=    15 local x,y,z forces =    0.0000E+00    0.0000E+00    0.0000E+00  setid=       0
 node=    16 local x,y,z forces =    0.0000E+00    0.0000E+00    0.0000E+00  setid=       0
 node=    17 local x,y,z forces =    0.0000E+00    0.0000E+00    0.0000E+00  setid=       0
 node=    18 local x,y,z forces =    0.0000E+00    0.0000E+00    0.0000E+00  setid=       0
 node=    19 local x,y,z forces =    0.0000E+00    0.0000E+00    0.0000E+00  setid=       0
 node=    20 local x,y,z forces =    0.0000E+00    0.0000E+00    0.0000E+00  setid=       0
 node=    21 local x,y,z forces =    0.0000E+00    0.0000E+00    0.0000E+00  setid=       0
 node=    22 local x,y,z forces =    0.0000E+00    0.0000E+00    0.0000E+00  setid=       0
 node=    23 local x,y,z forces =    0.0000E+00    0.0000E+00    0.0000E+00  setid=       0
 node=    24 local x,y,z forces =    0.0000E+00    0.0000E+00    0.0000E+00  setid=       0
 node=    25 local x,y,z forces =    0.0000E+00    0.0000E+00    0.0000E+00  setid=       0
 node=    26 local x,y,z forces =    0.0000E+00    0.0000E+00    0.0000E+00  setid=       0
 node=    27 local x,y,z forces =    0.0000E+00    0.0000E+00    0.0000E+00  setid=       0
 node=    28 local x,y,z forces =    0.0000E+00    0.0000E+00    0.0000E+00  setid=       0
 node=    29 local x,y,z forces =    0.0000E+00    0.0000E+00    0.0000E+00  setid=       0
 node=    30 local x,y,z forces =    0.0000E+00    0.0000E+00    0.0000E+00  setid=       0
 node=    31 local x,y,z forces =    0.0000E+00    0.0000E+00    0.0000E+00  setid=       0
 node=    32 local x,y,z forces =    0.0000E+00    0.0000E+00    0.0000E+00  setid=       0
 node=    33 local x,y,z forces =    0.0000E+00    0.0000E+00    0.0000E+00  setid=       0
 node=    34 local x,y,z forces =    0.0000E+00    0.0000E+00    0.0000E+00  setid=       0
 node=    35 local x,y,z forces =    0.0000E+00    0.0000E+00    0.0000E+00  setid=       0
 node=    36 local x,y,z forces =    0.0000E+00    0.0000E+00    0.0000E+00  setid=       0
 node=    37 local x,y,z forces =    0.0000E+00    0.0000E+00    0.0000E+00  setid=       0
 node=    38 local x,y,z forces =    0.0000E+00    0.0000E+00    0.0000E+00  setid=       0
 node=    39 local x,y,z forces =    0.0000E+00    0.0000E+00    0.0000E+00  setid=       0
 node=    40 local x,y,z forces =    0.0000E+00    0.0000E+00    0.0000E+00  setid=       0
 node=    41 local x,y,z forces =    0.0000E+00    0.0000E+00    0.0000E+00  setid=       0
 node=    42 local x,y,z forces =    0.0000E+00    0.0000E+00    0.0000E+00  setid=       0
 node=    43 local x,y,z forces =    0.0000E+00    0.0000E+00    0.0000E+00  setid=       0
 node=    44 local x,y,z forces =    0.0000E+00    0.0000E+00    0.0000E+00  setid=       0
 node=    45 local x,y,z forces =    0.0000E+00    0.0000E+00    0.0000E+00  setid=       0
 node=    46 local x,y,z forces =    0.0000E+00    0.0000E+00    0.0000E+00  setid=       0
 node=    47 local x,y,z forces =    0.0000E+00    0.0000E+00    0.0000E+00  setid=       0
 node=    48 local x,y,z forces =    0.0000E+00    0.0000E+00    0.0000E+00  setid=       0
 node=    49 local x,y,z forces =    0.0000E+00    0.0000E+00    0.0000E+00  setid=       0
 node=    50 local x,y,z forces =    0.0000E+00    0.0000E+00    0.0000E+00  setid=       0
 node=    51 local x,y,z forces =    0.0000E+00    0.0000E+00    0.0000E+00  setid=       0
 node=    52 local x,y,z forces =    0.0000E+00    0.0000E+00    0.0000E+00  setid=       0
 node=    53 local x,y,z forces =    0.0000E+00    0.0000E+00    0.0000E+00  setid=       0
 node=    54 local x,y,z forces =    0.0000E+00    0.0000E+00    0.0000E+00  setid=       0
 node=    55 local x,y,z forces =    0.0000E+00    0.0000E+00    0.0000E+00  setid=       0
 node=    56 local x,y,z forces =    0.0000E+00    0.0000E+00    0.0000E+00  setid=       0
 node=    57 local x,y,z forces =    0.0000E+00    0.0000E+00    0.0000E+00  setid=       0
 node=    58 local x,y,z forces =    0.0000E+00    0.0000E+00    0.0000E+00  setid=       0
 node=    59 local x,y,z forces =    0.0000E+00    0.0000E+00    0.0000E+00  setid=       0
 node=    60 local x,y,z forces =    0.0000E+00    0.0000E+00    0.0000E+00  setid=       0
 node=    61 local x,y,z forces =    0.0000E+00    0.0000E+00    0.0000E+00  setid=       0
 node=    62 local x,y,z forces =    0.0000E+00    0.0000E+00    0.0000E+00  setid=       0
 node=    63 local x,y,z forces =    0.0000E+00    0.0000E+00    0.0000E+00  setid=       0
 node=    64 local x,y,z forces =    0.0000E+00    0.0000E+00    0.0000E+00  setid=       0
 node=    65 local x,y,z forces =    0.0000E+00    0.0000E+00    0.0000E+00  setid=       0
 node=    66 local x,y,z forces =    0.0000E+00    0.0000E+00    0.0000E+00  setid=       0
 node=    67 local x,y,z forces =    0.0000E+00    0.0000E+00    0.0000E+00  setid=       0
 node=    68 local x,y,z forces =    0.0000E+00    0.0000E+00    0.0000E+00  setid=       0
 node=    69 local x,y,z forces =    0.0000E+00    0.0000E+00    0.0000E+00  setid=       0
 node=    70 local x,y,z forces =    0.0000E+00    0.0000E+00    0.0000E+00  setid=       0
 node=    71 local x,y,z forces =    0.0000E+00    0.0000E+00    0.0000E+00  setid=       0
 node=    72 local x,y,z forces =    0.0000E+00    0.0000E+00    0.0000E+00  setid=       0
 node=    73 local x,y,z forces =    0.0000E+00    0.0000E+00    0.0000E+00  setid=       0
 node=    74 local x,y,z forces =    0.0000E+00    0.0000E+00    0.0000E+00  setid=       0
 node=    75 local x,y,z forces =    0.0000E+00    0.0000E+00    0.0000E+00  setid=       0
 node=    76 local x,y,z forces =    0.0000E+00    0.0000E+00    0.0000E+00  setid=       0
 node=    77 local x,y,z forces =    0.0000E+00    0.0000E+00    0.0000E+00  setid=       0
 node=    78 local x,y,z forces =    0.0000E+00    0.0000E+00    0.0000E+00  setid=       0
 node=    79 local x,y,z forces =    0.0000E+00    0.0000E+00    0.0000E+00  setid=       0
 node=    80 local x,y,z forces =    0.0000E+00    0.0000E+00    0.0000E+00  setid=       0
 node=    81 local x,y,z forces =    0.0000E+00    0.0000E+00    0.0000E+00  setid=       0
 node=    82 local x,y,z forces =    0.0000E+00    0.0000E+00    0.0000E+00  setid=       0
 node=    83 local x,y,z forces =    0.0000E+00    0.0000E+00    0.0000E+00  setid=       0
 node=    84 local x,y,z forces =    0.0000E+00    0.0000E+00    0.0000E+00  setid=       0
 node=    85 local x,y,z forces =    0.0000E+00    0.0000E+00    0.0000E+00  setid=       0
 node=    86 local x,y,z forces =    0.0000E+00    0.0000E+00    0.0000E+00  setid=       0
 node=    87 local x,y,z forces =    0.0000E+00    0.0000E+00    0.0000E+00  setid=       0
 node=    88 local x,y,z forces =    0.0000E+00    0.0000E+00    0.0000E+00  setid=       0
 node=    89 local x,y,z forces =    0.0000E+00    0.0000E+00    0.0000E+00  setid=       0
 node=    90 local x,y,z forces =    0.0000E+00    0.0000E+00    0.0000E+00  setid=       0
 node=    91 local x,y,z forces =    0.0000E+00    0.0000E+00    0.0000E+00  setid=       0
 node=    92 local x,y,z forces =    0.0000E+00    0.0000E+00    0.0000E+00  setid=       0
 node=    93 local x,y,z forces =    0.0000E+00    0.0000E+00    0.0000E+00  setid=       0
 node=    94 local x,y,z forces =    0.0000E+00    0.0000E+00    0.0000E+00  setid=       0
 node=    95 local x,y,z forces =    0.0000E+00    0.0000E+00    0.0000E+00  setid=       0
 node=    96 local x,y,z forces =    0.0000E+00    0.0000E+00    0.0000E+00  setid=       0
 node=    97 local x,y,z forces =    0.0000E+00    0.0000E+00    0.0000E+00  setid=       0
 node=    98 local x,y,z forces =    0.0000E+00    0.0000E+00    0.0000E+00  setid=       0
 node=    99 local x,y,z forces =    0.0000E+00    0.0000E+00    0.0000E+00  setid=       0
 node=   100 local x,y,z forces =    0.0000E+00    0.0000E+00    0.0000E+00  setid=       0
 node=   101 local x,y,z forces =    0.0000E+00    0.0000E+00    0.0000E+00  setid=       0
 node=   102 local x,y,z forces =    0.0000E+00    0.0000E+00    0.0000E+00  setid=       0
 node=   103 local x,y,z forces =    0.0000E+00    0.0000E+00    0.0000E+00  setid=       0
 node=   104 local x,y,z forces =    0.0000E+00    0.0000E+00    0.0000E+00  setid=       0
 node=   105 local x,y,z forces =    0.0000E+00    0.0000E+00    0.0000E+00  setid=       0
 node=   106 local x,y,z forces =    0.0000E+00    0.0000E+00    0.0000E+00  setid=       0
 node=   107 local x,y,z forces =    0.0000E+00    0.0000E+00    0.0000E+00  setid=       0
 node=   108 local x,y,z forces =    0.0000E+00    0.0000E+00    0.0000E+00  setid=       0
 node=   109 local x,y,z forces =    0.0000E+00    0.0000E+00    0.0000E+00  setid=       0
 node=   110 local x,y,z forces =    0.0000E+00    0.0000E+00    0.0000E+00  setid=       0
 node=   111 local x,y,z forces =    0.0000E+00    0.0000E+00    0.0000E+00  setid=       0
 node=   112 local x,y,z forces =    0.0000E+00    0.0000E+00    0.0000E+00  setid=       0
 node=   113 local x,y,z forces =    0.0000E+00    0.0000E+00    0.0000E+00  setid=       0
 node=   114 local x,y,z forces =    0.0000E+00    0.0000E+00    0.0000E+00  setid=       0
 node=   115 local x,y,z forces =    0.0000E+00    0.0000E+00    0.0000E+00  setid=       0
 node=   116 local x,y,z forces =    0.0000E+00    0.0000E+00    0.0000E+00  setid=       0
 node=   117 local x,y,z forces =    0.0000E+00    0.0000E+00    0.0000E+00  setid=       0
 node=   118 local x,y,z forces =    0.0000E+00    0.0000E+00    0.0000E+00  setid=       0
 node=   119 local x,y,z forces =    0.0000E+00    0.0000E+00    0.0000E+00  setid=       0
 node=   120 local x,y,z forces =    0.0000E+00    0.0000E+00    0.0000E+00  setid=       0
 node=   121 local x,y,z forces =    0.0000E+00    0.0000E+00    0.0000E+00  setid=       0
 node=   122 local x,y,z forces =    0.0000E+00    0.0000E+00    0.0000E+00  setid=       0
 node=   123 local x,y,z forces =    0.0000E+00    0.0000E+00    0.0000E+00  setid=       0
 node=   124 local x,y,z forces =    0.0000E+00    0.0000E+00    0.0000E+00  setid=       0
 node=   125 local x,y,z forces =    0.0000E+00    0.0000E+00    0.0000E+00  setid=       0
 node=  6251 local x,y,z forces =    0.0000E+00    0.0000E+00    0.0000E+00  setid=       0
 node=  6252 local x,y,z forces =    0.0000E+00    0.0000E+00    0.0000E+00  setid=       0
 node=  6253 local x,y,z forces =    0.0000E+00    0.0000E+00    0.0000E+00  setid=       0
 node=  6254 local x,y,z forces =    0.0000E+00    0.0000E+00    0.0000E+00  setid=       0
 node=  6255 local x,y,z forces =    0.0000E+00    0.0000E+00    0.0000E+00  setid=       0
 node=  6256 local x,y,z forces =    0.0000E+00    0.0000E+00    0.0000E+00  setid=       0
 node=  6257 local x,y,z forces =    0.0000E+00    0.0000E+00    0.0000E+00  setid=       0
 node=  6258 local x,y,z forces =    0.0000E+00    0.0000E+00    0.0000E+00  setid=       0
 node=  6259 local x,y,z forces =    0.0000E+00    0.0000E+00    0.0000E+00  setid=       0
 node=  6260 local x,y,z forces =    0.0000E+00    0.0000E+00    0.0000E+00  setid=       0
 node=  6261 local x,y,z forces =    0.0000E+00    0.0000E+00    0.0000E+00  setid=       0
 node=  6262 local x,y,z forces =    0.0000E+00    0.0000E+00    0.0000E+00  setid=       0
 node=  6263 local x,y,z forces =    0.0000E+00    0.0000E+00    0.0000E+00  setid=       0
 node=  6264 local x,y,z forces =    0.0000E+00    0.0000E+00    0.0000E+00  setid=       0
 node=  6265 local x,y,z forces =    0.0000E+00    0.0000E+00    0.0000E+00  setid=       0
 node=  6266 local x,y,z forces =    0.0000E+00    0.0000E+00    0.0000E+00  setid=       0
 node=  6267 local x,y,z forces =    0.0000E+00    0.0000E+00    0.0000E+00  setid=       0
 node=  6268 local x,y,z forces =    0.0000E+00    0.0000E+00    0.0000E+00  setid=       0
 node=  6269 local x,y,z forces =    0.0000E+00    0.0000E+00    0.0000E+00  setid=       0
 node=  6270 local x,y,z forces =    0.0000E+00    0.0000E+00    0.0000E+00  setid=       0
 node=  6271 local x,y,z forces =    0.0000E+00    0.0000E+00    0.0000E+00  setid=       0
 node=  6272 local x,y,z forces =    0.0000E+00    0.0000E+00    0.0000E+00  setid=       0
 node=  6273 local x,y,z forces =    0.0000E+00    0.0000E+00    0.0000E+00  setid=       0
 node=  6274 local x,y,z forces =    0.0000E+00    0.0000E+00    0.0000E+00  setid=       0
 node=  6275 local x,y,z forces =    0.0000E+00    0.0000E+00    0.0000E+00  setid=       0
 node=  6276 local x,y,z forces =    0.0000E+00    0.0000E+00    0.0000E+00  setid=       0
 node=  6277 local x,y,z forces =    0.0000E+00    0.0000E+00    0.0000E+00  setid=       0
 node=  6278 local x,y,z forces =    0.0000E+00    0.0000E+00    0.0000E+00  setid=       0
 node=  6279 local x,y,z forces =    0.0000E+00    0.0000E+00    0.0000E+00  setid=       0
 node=  6280 local x,y,z forces =    0.0000E+00    0.0000E+00    0.0000E+00  setid=       0
 node=  6281 local x,y,z forces =    0.0000E+00    0.0000E+00    0.0000E+00  setid=       0
 node=  6282 local x,y,z forces =    0.0000E+00    0.0000E+00    0.0000E+00  setid=       0
 node=  6283 local x,y,z forces =    0.0000E+00    0.0000E+00    0.0000E+00  setid=       0
 node=  6284 local x,y,z forces =    0.0000E+00    0.0000E+00    0.0000E+00  setid=       0
 node=  6285 local x,y,z forces =    0.0000E+00    0.0000E+00    0.0000E+00  setid=       0
 node=  6286 local x,y,z forces =    0.0000E+00    0.0000E+00    0.0000E+00  setid=       0
 node=  6287 local x,y,z forces =    0.0000E+00    0.0000E+00    0.0000E+00  setid=       0
 node=  6288 local x,y,z forces =    0.0000E+00    0.0000E+00    0.0000E+00  setid=       0
 node=  6289 local x,y,z forces =    0.0000E+00    0.0000E+00    0.0000E+00  setid=       0
 node=  6290 local x,y,z forces =    0.0000E+00    0.0000E+00    0.0000E+00  setid=       0
 node=  6291 local x,y,z forces =    0.0000E+00    0.0000E+00    0.0000E+00  setid=       0
 node=  6292 local x,y,z forces =    0.0000E+00    0.0000E+00    0.0000E+00  setid=       0
 node=  6293 local x,y,z forces =    0.0000E+00    0.0000E+00    0.0000E+00  setid=       0
 node=  6294 local x,y,z forces =    0.0000E+00    0.0000E+00    0.0000E+00  setid=       0
 node=  6295 local x,y,z forces =    0.0000E+00    0.0000E+00    0.0000E+00  setid=       0
 node=  6296 local x,y,z forces =    0.0000E+00    0.0000E+00    0.0000E+00  setid=       0
 node=  6297 local x,y,z forces =    0.0000E+00    0.0000E+00    0.0000E+00  setid=       0
 node=  6298 local x,y,z forces =    0.0000E+00    0.0000E+00    0.0000E+00  setid=       0
 node=  6299 local x,y,z forces =    0.0000E+00    0.0000E+00    0.0000E+00  setid=       0
 node=  6300 local x,y,z forces =    0.0000E+00    0.0000E+00    0.0000E+00  setid=       0
 node=  6301 local x,y,z forces =    0.0000E+00    0.0000E+00    0.0000E+00  setid=       0
 node=  6302 local x,y,z forces =    0.0000E+00    0.0000E+00    0.0000E+00  setid=       0
 node=  6303 local x,y,z forces =    0.0000E+00    0.0000E+00    0.0000E+00  setid=       0
 node=  6304 local x,y,z forces =    0.0000E+00    0.0000E+00    0.0000E+00  setid=       0
 node=  6305 local x,y,z forces =    0.0000E+00    0.0000E+00    0.0000E+00  setid=       0
 node=  6306 local x,y,z forces =    0.0000E+00    0.0000E+00    0.0000E+00  setid=       0
 node=  6307 local x,y,z forces =    0.0000E+00    0.0000E+00    0.0000E+00  setid=       0
 node=  6308 local x,y,z forces =    0.0000E+00    0.0000E+00    0.0000E+00  setid=       0
 node=  6309 local x,y,z forces =    0.0000E+00    0.0000E+00    0.0000E+00  setid=       0
 node=  6310 local x,y,z forces =    0.0000E+00    0.0000E+00    0.0000E+00  setid=       0
 node=  6311 local x,y,z forces =    0.0000E+00    0.0000E+00    0.0000E+00  setid=       0
 node=  6312 local x,y,z forces =    0.0000E+00    0.0000E+00    0.0000E+00  setid=       0
 node=  6313 local x,y,z forces =    0.0000E+00    0.0000E+00    0.0000E+00  setid=       0
 node=  6314 local x,y,z forces =    0.0000E+00    0.0000E+00    0.0000E+00  setid=       0
 node=  6315 local x,y,z forces =    0.0000E+00    0.0000E+00    0.0000E+00  setid=       0
 node=  6316 local x,y,z forces =    0.0000E+00    0.0000E+00    0.0000E+00  setid=       0
 node=  6317 local x,y,z forces =    0.0000E+00    0.0000E+00    0.0000E+00  setid=       0
 node=  6318 local x,y,z forces =    0.0000E+00    0.0000E+00    0.0000E+00  setid=       0
 node=  6319 local x,y,z forces =    0.0000E+00    0.0000E+00    0.0000E+00  setid=       0
 node=  6320 local x,y,z forces =    0.0000E+00    0.0000E+00    0.0000E+00  setid=       0
 node=  6321 local x,y,z forces =    0.0000E+00    0.0000E+00    0.0000E+00  setid=       0
 node=  6322 local x,y,z forces =    0.0000E+00    0.0000E+00    0.0000E+00  setid=       0
 node=  6323 local x,y,z forces =    0.0000E+00    0.0000E+00    0.0000E+00  setid=       0
 node=  6324 local x,y,z forces =    0.0000E+00    0.0000E+00    0.0000E+00  setid=       0
 node=  6325 local x,y,z forces =    0.0000E+00    0.0000E+00    0.0000E+00  setid=       0
 node=  6326 local x,y,z forces =    0.0000E+00    0.0000E+00    0.0000E+00  setid=       0
 node=  6327 local x,y,z forces =    0.0000E+00    0.0000E+00    0.0000E+00  setid=       0
 node=  6328 local x,y,z forces =    0.0000E+00    0.0000E+00    0.0000E+00  setid=       0
 node=  6329 local x,y,z forces =    0.0000E+00    0.0000E+00    0.0000E+00  setid=       0
 node=  6330 local x,y,z forces =    0.0000E+00    0.0000E+00    0.0000E+00  setid=       0
 node=  6331 local x,y,z forces =    0.0000E+00    0.0000E+00    0.0000E+00  setid=       0
 node=  6332 local x,y,z forces =    0.0000E+00    0.0000E+00    0.0000E+00  setid=       0
 node=  6333 local x,y,z forces =    0.0000E+00    0.0000E+00    0.0000E+00  setid=       0
 node=  6334 local x,y,z forces =    0.0000E+00    0.0000E+00    0.0000E+00  setid=       0
 node=  6335 local x,y,z forces =    0.0000E+00    0.0000E+00    0.0000E+00  setid=       0
 node=  6336 local x,y,z forces =    0.0000E+00    0.0000E+00    0.0000E+00  setid=       0
 node=  6337 local x,y,z forces =    0.0000E+00    0.0000E+00    0.0000E+00  setid=       0
 node=  6338 local x,y,z forces =    0.0000E+00    0.0000E+00    0.0000E+00  setid=       0
 node=  6339 local x,y,z forces =    0.0000E+00    0.0000E+00    0.0000E+00  setid=       0
 node=  6340 local x,y,z forces =    0.0000E+00    0.0000E+00    0.0000E+00  setid=       0
 node=  6341 local x,y,z forces =    0.0000E+00    0.0000E+00    0.0000E+00  setid=       0
 node=  6342 local x,y,z forces =    0.0000E+00    0.0000E+00    0.0000E+00  setid=       0
 node=  6343 local x,y,z forces =    0.0000E+00    0.0000E+00    0.0000E+00  setid=       0
 node=  6344 local x,y,z forces =    0.0000E+00    0.0000E+00    0.0000E+00  setid=       0
 node=  6345 local x,y,z forces =    0.0000E+00    0.0000E+00    0.0000E+00  setid=       0
 node=  6346 local x,y,z forces =    0.0000E+00    0.0000E+00    0.0000E+00  setid=       0
 node=  6347 local x,y,z forces =    0.0000E+00    0.0000E+00    0.0000E+00  setid=       0
 node=  6348 local x,y,z forces =    0.0000E+00    0.0000E+00    0.0000E+00  setid=       0
 node=  6349 local x,y,z forces =    0.0000E+00    0.0000E+00    0.0000E+00  setid=       0
 node=  6350 local x,y,z forces =    0.0000E+00    0.0000E+00    0.0000E+00  setid=       0
 node=  6351 local x,y,z forces =    0.0000E+00    0.0000E+00    0.0000E+00  setid=       0
 node=  6352 local x,y,z forces =    0.0000E+00    0.0000E+00    0.0000E+00  setid=       0
 node=  6353 local x,y,z forces =    0.0000E+00    0.0000E+00    0.0000E+00  setid=       0
 node=  6354 local x,y,z forces =    0.0000E+00    0.0000E+00    0.0000E+00  setid=       0
 node=  6355 local x,y,z forces =    0.0000E+00    0.0000E+00    0.0000E+00  setid=       0
 node=  6356 local x,y,z forces =    0.0000E+00    0.0000E+00    0.0000E+00  setid=       0
 node=  6357 local x,y,z forces =    0.0000E+00    0.0000E+00    0.0000E+00  setid=       0
 node=  6358 local x,y,z forces =    0.0000E+00    0.0000E+00    0.0000E+00  setid=       0
 node=  6359 local x,y,z forces =    0.0000E+00    0.0000E+00    0.0000E+00  setid=       0
 node=  6360 local x,y,z forces =    0.0000E+00    0.0000E+00    0.0000E+00  setid=       0
 node=  6361 local x,y,z forces =    0.0000E+00    0.0000E+00    0.0000E+00  setid=       0
 node=  6362 local x,y,z forces =    0.0000E+00    0.0000E+00    0.0000E+00  setid=       0
 node=  6363 local x,y,z forces =    0.0000E+00    0.0000E+00    0.0000E+00  setid=       0
 node=  6364 local x,y,z forces =    0.0000E+00    0.0000E+00    0.0000E+00  setid=       0
 node=  6365 local x,y,z forces =    0.0000E+00    0.0000E+00    0.0000E+00  setid=       0
 node=  6366 local x,y,z forces =    0.0000E+00    0.0000E+00    0.0000E+00  setid=       0
 node=  6367 local x,y,z forces =    0.0000E+00    0.0000E+00    0.0000E+00  setid=       0
 node=  6368 local x,y,z forces =    0.0000E+00    0.0000E+00    0.0000E+00  setid=       0
 node=  6369 local x,y,z forces =    0.0000E+00    0.0000E+00    0.0000E+00  setid=       0
 node=  6370 local x,y,z forces =    0.0000E+00    0.0000E+00    0.0000E+00  setid=       0
 node=  6371 local x,y,z forces =    0.0000E+00    0.0000E+00    0.0000E+00  setid=       0
 node=  6372 local x,y,z forces =    0.0000E+00    0.0000E+00    0.0000E+00  setid=       0
 node=  6373 local x,y,z forces =    0.0000E+00    0.0000E+00    0.0000E+00  setid=       0
 node=  6374 local x,y,z forces =    0.0000E+00    0.0000E+00    0.0000E+00  setid=       0
 node=  6375 local x,y,z forces =    0.0000E+00    0.0000E+00    0.0000E+00  setid=       0
             force resultants   =    0.0000E+00    0.0000E+00    0.0000E+00
 output at time =   5.00000E-04
 node=     1 local x,y,z forces =   -8.6212E+03   -1.0256E+04   -2.8327E+04  setid=       0
 node=     2 local x,y,z forces =   -3.3385E+03   -2.0072E+04   -5.0327E+04  setid=       0
 node=     3 local x,y,z forces =   -1.3937E+01   -1.9747E+04   -4.7841E+04  setid=       0
 node=     4 local x,y,z forces =    3.3176E+03   -2.0096E+04   -5.0384E+04  setid=       0
 node=     5 local x,y,z forces =    8.6268E+03   -1.0274E+04   -2.8370E+04  setid=       0
 node=     6 local x,y,z forces =   -1.5283E+04   -6.5376E+03   -4.4060E+04  setid=       0
 node=     7 local x,y,z forces =   -6.4592E+03   -1.3236E+04   -7.5415E+04  setid=       0
 node=     8 local x,y,z forces =   -2.1024E+01   -1.3396E+04   -7.0126E+04  setid=       0
 node=     9 local x,y,z forces =    6.4281E+03   -1.3254E+04   -7.5507E+04  setid=       0
 node=    10 local x,y,z forces =    1.5297E+04   -6.5528E+03   -4.4132E+04  setid=       0
 node=    11 local x,y,z forces =   -1.3552E+04   -6.6412E+03   -3.7423E+04  setid=       0
 node=    12 local x,y,z forces =   -6.2176E+03   -1.3320E+04   -6.2439E+04  setid=       0
 node=    13 local x,y,z forces =   -1.3118E+01   -1.3357E+04   -5.7085E+04  setid=       0
 node=    14 local x,y,z forces =    6.1981E+03   -1.3339E+04   -6.2529E+04  setid=       0
 node=    15 local x,y,z forces =    1.3572E+04   -6.6561E+03   -3.7499E+04  setid=       0
 node=    16 local x,y,z forces =   -1.3247E+04   -4.9004E+03   -3.7023E+04  setid=       0
 node=    17 local x,y,z forces =   -6.0629E+03   -9.7907E+03   -6.1782E+04  setid=       0
 node=    18 local x,y,z forces =   -1.0318E+01   -9.7787E+03   -5.6408E+04  setid=       0
 node=    19 local x,y,z forces =    6.0471E+03   -9.8040E+03   -6.1882E+04  setid=       0
 node=    20 local x,y,z forces =    1.3272E+04   -4.9107E+03   -3.7110E+04  setid=       0
 node=    21 local x,y,z forces =   -1.2948E+04   -4.3628E+03   -3.5928E+04  setid=       0
 node=    22 local x,y,z forces =   -5.9426E+03   -8.7407E+03   -5.9640E+04  setid=       0
 node=    23 local x,y,z forces =   -9.0410E+00   -8.7527E+03   -5.4216E+04  setid=       0
 node=    24 local x,y,z forces =    5.9288E+03   -8.7513E+03   -5.9746E+04  setid=       0
 node=    25 local x,y,z forces =    1.2976E+04   -4.3710E+03   -3.6022E+04  setid=       0
 node=    26 local x,y,z forces =   -1.2828E+04   -3.5086E+03   -3.5748E+04  setid=       0
 node=    27 local x,y,z forces =   -5.8696E+03   -7.0242E+03   -5.9345E+04  setid=       0
 node=    28 local x,y,z forces =   -8.6011E+00   -7.0308E+03   -5.3925E+04  setid=       0
 node=    29 local x,y,z forces =    5.8563E+03   -7.0319E+03   -5.9458E+04  setid=       0
 node=    30 local x,y,z forces =    1.2858E+04   -3.5145E+03   -3.5848E+04  setid=       0
 node=    31 local x,y,z forces =   -1.2730E+04   -2.9768E+03   -3.5405E+04  setid=       0
 node=    32 local x,y,z forces =   -5.8255E+03   -5.9614E+03   -5.8691E+04  setid=       0
 node=    33 local x,y,z forces =   -8.5042E+00   -5.9694E+03   -5.3268E+04  setid=       0
 node=    34 local x,y,z forces =    5.8124E+03   -5.9672E+03   -5.8808E+04  setid=       0
 node=    35 local x,y,z forces =    1.2761E+04   -2.9813E+03   -3.5508E+04  setid=       0
 node=    36 local x,y,z forces =   -1.2682E+04   -2.3724E+03   -3.5322E+04  setid=       0
 node=    37 local x,y,z forces =   -5.8001E+03   -4.7479E+03   -5.8550E+04  setid=       0
 node=    38 local x,y,z forces =   -8.5919E+00   -4.7510E+03   -5.3130E+04  setid=       0
 node=    39 local x,y,z forces =    5.7868E+03   -4.7520E+03   -5.8671E+04  setid=       0
 node=    40 local x,y,z forces =    1.2714E+04   -2.3756E+03   -3.5428E+04  setid=       0
 node=    41 local x,y,z forces =   -1.2645E+04   -1.8814E+03   -3.5194E+04  setid=       0
 node=    42 local x,y,z forces =   -5.7840E+03   -3.7649E+03   -5.8306E+04  setid=       0
 node=    43 local x,y,z forces =   -8.7340E+00   -3.7674E+03   -5.2885E+04  setid=       0
 node=    44 local x,y,z forces =    5.7706E+03   -3.7679E+03   -5.8429E+04  setid=       0
 node=    45 local x,y,z forces =    1.2678E+04   -1.8837E+03   -3.5302E+04  setid=       0
 node=    46 local x,y,z forces =   -1.2625E+04   -1.3758E+03   -3.5158E+04  setid=       0
 node=    47 local x,y,z forces =   -5.7743E+03   -2.7523E+03   -5.8243E+04  setid=       0
 node=    48 local x,y,z forces =   -8.8851E+00   -2.7531E+03   -5.2821E+04  setid=       0
 node=    49 local x,y,z forces =    5.7606E+03   -2.7543E+03   -5.8367E+04  setid=       0
 node=    50 local x,y,z forces =    1.2658E+04   -1.3774E+03   -3.5268E+04  setid=       0
 node=    51 local x,y,z forces =   -1.2611E+04   -9.1418E+02   -3.5108E+04  setid=       0
 node=    52 local x,y,z forces =   -5.7683E+03   -1.8287E+03   -5.8147E+04  setid=       0
 node=    53 local x,y,z forces =   -9.0063E+00   -1.8293E+03   -5.2725E+04  setid=       0
 node=    54 local x,y,z forces =    5.7545E+03   -1.8300E+03   -5.8273E+04  setid=       0
 node=    55 local x,y,z forces =    1.2644E+04   -9.1515E+02   -3.5219E+04  setid=       0
 node=    56 local x,y,z forces =   -1.2605E+04   -4.5117E+02   -3.5099E+04  setid=       0
 node=    57 local x,y,z forces =   -5.7652E+03   -9.0236E+02   -5.8131E+04  setid=       0
 node=    58 local x,y,z forces =   -9.0856E+00   -9.0247E+02   -5.2708E+04  setid=       0
 node=    59 local x,y,z forces =    5.7512E+03   -9.0295E+02   -5.8257E+04  setid=       0
 node=    60 local x,y,z forces =    1.2638E+04   -4.5162E+02   -3.5210E+04  setid=       0
 node=    61 local x,y,z forces =   -1.2602E+04   -3.6380E-12   -3.5085E+04  setid=       0
 node=    62 local x,y,z forces =   -5.7641E+03    9.0949E-12   -5.8104E+04  setid=       0
 node=    63 local x,y,z forces =   -9.1120E+00   -3.6380E-12   -5.2680E+04  setid=       0
 node=    64 local x,y,z forces =    5.7502E+03   -1.8190E-11   -5.8230E+04  setid=       0
 node=    65 local x,y,z forces =    1.2635E+04   -9.0949E-12   -3.5197E+04  setid=       0
 node=    66 local x,y,z forces =   -1.2605E+04    4.5117E+02   -3.5099E+04  setid=       0
 node=    67 local x,y,z forces =   -5.7652E+03    9.0236E+02   -5.8131E+04  setid=       0
 node=    68 local x,y,z forces =   -9.0856E+00    9.0247E+02   -5.2708E+04  setid=       0
 node=    69 local x,y,z forces =    5.7512E+03    9.0295E+02   -5.8257E+04  setid=       0
 node=    70 local x,y,z forces =    1.2638E+04    4.5162E+02   -3.5210E+04  setid=       0
 node=    71 local x,y,z forces =   -1.2611E+04    9.1418E+02   -3.5108E+04  setid=       0
 node=    72 local x,y,z forces =   -5.7683E+03    1.8287E+03   -5.8147E+04  setid=       0
 node=    73 local x,y,z forces =   -9.0063E+00    1.8293E+03   -5.2725E+04  setid=       0
 node=    74 local x,y,z forces =    5.7545E+03    1.8300E+03   -5.8273E+04  setid=       0
 node=    75 local x,y,z forces =    1.2644E+04    9.1515E+02   -3.5219E+04  setid=       0
 node=    76 local x,y,z forces =   -1.2625E+04    1.3758E+03   -3.5158E+04  setid=       0
 node=    77 local x,y,z forces =   -5.7743E+03    2.7523E+03   -5.8243E+04  setid=       0
 node=    78 local x,y,z forces =   -8.8851E+00    2.7531E+03   -5.2821E+04  setid=       0
 node=    79 local x,y,z forces =    5.7606E+03    2.7543E+03   -5.8367E+04  setid=       0
 node=    80 local x,y,z forces =    1.2658E+04    1.3774E+03   -3.5268E+04  setid=       0
 node=    81 local x,y,z forces =   -1.2645E+04    1.8814E+03   -3.5194E+04  setid=       0
 node=    82 local x,y,z forces =   -5.7840E+03    3.7649E+03   -5.8306E+04  setid=       0
 node=    83 local x,y,z forces =   -8.7340E+00    3.7674E+03   -5.2885E+04  setid=       0
 node=    84 local x,y,z forces =    5.7706E+03    3.7679E+03   -5.8429E+04  setid=       0
 node=    85 local x,y,z forces =    1.2678E+04    1.8837E+03   -3.5302E+04  setid=       0
 node=    86 local x,y,z forces =   -1.2682E+04    2.3724E+03   -3.5322E+04  setid=       0
 node=    87 local x,y,z forces =   -5.8001E+03    4.7479E+03   -5.8550E+04  setid=       0
 node=    88 local x,y,z forces =   -8.5919E+00    4.7510E+03   -5.3130E+04  setid=       0
 node=    89 local x,y,z forces =    5.7868E+03    4.7520E+03   -5.8671E+04  setid=       0
 node=    90 local x,y,z forces =    1.2714E+04    2.3756E+03   -3.5428E+04  setid=       0
 node=    91 local x,y,z forces =   -1.2730E+04    2.9768E+03   -3.5405E+04  setid=       0
 node=    92 local x,y,z forces =   -5.8255E+03    5.9614E+03   -5.8691E+04  setid=       0
 node=    93 local x,y,z forces =   -8.5042E+00    5.9694E+03   -5.3268E+04  setid=       0
 node=    94 local x,y,z forces =    5.8124E+03    5.9672E+03   -5.8808E+04  setid=       0
 node=    95 local x,y,z forces =    1.2761E+04    2.9813E+03   -3.5508E+04  setid=       0
 node=    96 local x,y,z forces =   -1.2828E+04    3.5086E+03   -3.5748E+04  setid=       0
 node=    97 local x,y,z forces =   -5.8696E+03    7.0242E+03   -5.9345E+04  setid=       0
 node=    98 local x,y,z forces =   -8.6011E+00    7.0308E+03   -5.3925E+04  setid=       0
 node=    99 local x,y,z forces =    5.8563E+03    7.0319E+03   -5.9458E+04  setid=       0
 node=   100 local x,y,z forces =    1.2858E+04    3.5145E+03   -3.5848E+04  setid=       0
 node=   101 local x,y,z forces =   -1.2948E+04    4.3628E+03   -3.5928E+04  setid=       0
 node=   102 local x,y,z forces =   -5.9426E+03    8.7407E+03   -5.9640E+04  setid=       0
 node=   103 local x,y,z forces =   -9.0410E+00    8.7527E+03   -5.4216E+04  setid=       0
 node=   104 local x,y,z forces =    5.9288E+03    8.7513E+03   -5.9746E+04  setid=       0
 node=   105 local x,y,z forces =    1.2976E+04    4.3710E+03   -3.6022E+04  setid=       0
 node=   106 local x,y,z forces =   -1.3247E+04    4.9004E+03   -3.7023E+04  setid=       0
 node=   107 local x,y,z forces =   -6.0629E+03    9.7907E+03   -6.1782E+04  setid=       0
 node=   108 local x,y,z forces =   -1.0318E+01    9.7787E+03   -5.6408E+04  setid=       0
 node=   109 local x,y,z forces =    6.0471E+03    9.8040E+03   -6.1882E+04  setid=       0
 node=   110 local x,y,z forces =    1.3272E+04    4.9107E+03   -3.7110E+04  setid=       0
 node=   111 local x,y,z forces =   -1.3552E+04    6.6412E+03   -3.7423E+04  setid=       0
 node=   112 local x,y,z forces =   -6.2176E+03    1.3320E+04   -6.2439E+04  setid=       0
 node=   113 local x,y,z forces =   -1.3118E+01    1.3357E+04   -5.7085E+04  setid=       0
 node=   114 local x,y,z forces =    6.1981E+03    1.3339E+04   -6.2529E+04  setid=       0
 node=   115 local x,y,z forces =    1.3572E+04    6.6561E+03   -3.7499E+04  setid=       0
 node=   116 local x,y,z forces =   -1.5283E+04    6.5376E+03   -4.4060E+04  setid=       0
 node=   117 local x,y,z forces =   -6.4592E+03    1.3236E+04   -7.5415E+04  setid=       0
 node=   118 local x,y,z forces =   -2.1024E+01    1.3396E+04   -7.0126E+04  setid=       0
 node=   119 local x,y,z forces =    6.4281E+03    1.3254E+04   -7.5507E+04  setid=       0
 node=   120 local x,y,z forces =    1.5297E+04    6.5528E+03   -4.4132E+04  setid=       0
 node=   121 local x,y,z forces =   -8.6212E+03    1.0256E+04   -2.8327E+04  setid=       0
 node=   122 local x,y,z forces =   -3.3385E+03    2.0072E+04   -5.0327E+04  setid=       0
 node=   123 local x,y,z forces =   -1.3937E+01    1.9747E+04   -4.7841E+04  setid=       0
 node=   124 local x,y,z forces =    3.3176E+03    2.0096E+04   -5.0384E+04  setid=       0
 node=   125 local x,y,z forces =    8.6268E+03    1.0274E+04   -2.8370E+04  setid=       0
 node=  6251 local x,y,z forces =   -8.6212E+03   -1.0256E+04    0.0000E+00  setid=       0
 node=  6252 local x,y,z forces =   -3.3385E+03   -2.0072E+04    0.0000E+00  setid=       0
 node=  6253 local x,y,z forces =   -1.3937E+01   -1.9747E+04    0.0000E+00  setid=       0
 node=  6254 local x,y,z forces =    3.3176E+03   -2.0096E+04    0.0000E+00  setid=       0
 node=  6255 local x,y,z forces =    8.6268E+03   -1.0274E+04    0.0000E+00  setid=       0
 node=  6256 local x,y,z forces =   -1.5283E+04   -6.5376E+03    0.0000E+00  setid=       0
 node=  6257 local x,y,z forces =   -6.4592E+03   -1.3236E+04    0.0000E+00  setid=       0
 node=  6258 local x,y,z forces =   -2.1024E+01   -1.3396E+04    0.0000E+00  setid=       0
 node=  6259 local x,y,z forces =    6.4281E+03   -1.3254E+04    0.0000E+00  setid=       0
 node=  6260 local x,y,z forces =    1.5297E+04   -6.5528E+03    0.0000E+00  setid=       0
 node=  6261 local x,y,z forces =   -1.3552E+04   -6.6412E+03    0.0000E+00  setid=       0
 node=  6262 local x,y,z forces =   -6.2176E+03   -1.3320E+04    0.0000E+00  setid=       0
 node=  6263 local x,y,z forces =   -1.3118E+01   -1.3357E+04    0.0000E+00  setid=       0
 node=  6264 local x,y,z forces =    6.1981E+03   -1.3339E+04    0.0000E+00  setid=       0
 node=  6265 local x,y,z forces =    1.3572E+04   -6.6561E+03    0.0000E+00  setid=       0
 node=  6266 local x,y,z forces =   -1.3247E+04   -4.9004E+03    0.0000E+00  setid=       0
 node=  6267 local x,y,z forces =   -6.0629E+03   -9.7907E+03    0.0000E+00  setid=       0
 node=  6268 local x,y,z forces =   -1.0318E+01   -9.7787E+03    0.0000E+00  setid=       0
 node=  6269 local x,y,z forces =    6.0471E+03   -9.8040E+03    0.0000E+00  setid=       0
 node=  6270 local x,y,z forces =    1.3272E+04   -4.9107E+03    0.0000E+00  setid=       0
 node=  6271 local x,y,z forces =   -1.2948E+04   -4.3628E+03    0.0000E+00  setid=       0
 node=  6272 local x,y,z forces =   -5.9426E+03   -8.7407E+03    0.0000E+00  setid=       0
 node=  6273 local x,y,z forces =   -9.0410E+00   -8.7527E+03    0.0000E+00  setid=       0
 node=  6274 local x,y,z forces =    5.9288E+03   -8.7513E+03    0.0000E+00  setid=       0
 node=  6275 local x,y,z forces =    1.2976E+04   -4.3710E+03    0.0000E+00  setid=       0
 node=  6276 local x,y,z forces =   -1.2828E+04   -3.5086E+03    0.0000E+00  setid=       0
 node=  6277 local x,y,z forces =   -5.8696E+03   -7.0242E+03    0.0000E+00  setid=       0
 node=  6278 local x,y,z forces =   -8.6011E+00   -7.0308E+03    0.0000E+00  setid=       0
 node=  6279 local x,y,z forces =    5.8563E+03   -7.0319E+03    0.0000E+00  setid=       0
 node=  6280 local x,y,z forces =    1.2858E+04   -3.5145E+03    0.0000E+00  setid=       0
 node=  6281 local x,y,z forces =   -1.2730E+04   -2.9768E+03    0.0000E+00  setid=       0
 node=  6282 local x,y,z forces =   -5.8255E+03   -5.9614E+03    0.0000E+00  setid=       0
 node=  6283 local x,y,z forces =   -8.5042E+00   -5.9694E+03    0.0000E+00  setid=       0
 node=  6284 local x,y,z forces =    5.8124E+03   -5.9672E+03    0.0000E+00  setid=       0
 node=  6285 local x,y,z forces =    1.2761E+04   -2.9813E+03    0.0000E+00  setid=       0
 node=  6286 local x,y,z forces =   -1.2682E+04   -2.3724E+03    0.0000E+00  setid=       0
 node=  6287 local x,y,z forces =   -5.8001E+03   -4.7479E+03    0.0000E+00  setid=       0
 node=  6288 local x,y,z forces =   -8.5919E+00   -4.7510E+03    0.0000E+00  setid=       0
 node=  6289 local x,y,z forces =    5.7868E+03   -4.7520E+03    0.0000E+00  setid=       0
 node=  6290 local x,y,z forces =    1.2714E+04   -2.3756E+03    0.0000E+00  setid=       0
 node=  6291 local x,y,z forces =   -1.2645E+04   -1.8814E+03    0.0000E+00  setid=       0
 node=  6292 local x,y,z forces =   -5.7840E+03   -3.7649E+03    0.0000E+00  setid=       0
 node=  6293 local x,y,z forces =   -8.7340E+00   -3.7674E+03    0.0000E+00  setid=       0
 node=  6294 local x,y,z forces =    5.7706E+03   -3.7679E+03    0.0000E+00  setid=       0
 node=  6295 local x,y,z forces =    1.2678E+04   -1.8837E+03    0.0000E+00  setid=       0
 node=  6296 local x,y,z forces =   -1.2625E+04   -1.3758E+03    0.0000E+00  setid=       0
 node=  6297 local x,y,z forces =   -5.7743E+03   -2.7523E+03    0.0000E+00  setid=       0
 node=  6298 local x,y,z forces =   -8.8851E+00   -2.7531E+03    0.0000E+00  setid=       0
 node=  6299 local x,y,z forces =    5.7606E+03   -2.7543E+03    0.0000E+00  setid=       0
 node=  6300 local x,y,z forces =    1.2658E+04   -1.3774E+03    0.0000E+00  setid=       0
 node=  6301 local x,y,z forces =   -1.2611E+04   -9.1418E+02    0.0000E+00  setid=       0
 node=  6302 local x,y,z forces =   -5.7683E+03   -1.8287E+03    0.0000E+00  setid=       0
 node=  6303 local x,y,z forces =   -9.0063E+00   -1.8293E+03    0.0000E+00  setid=       0
 node=  6304 local x,y,z forces =    5.7545E+03   -1.8300E+03    0.0000E+00  setid=       0
 node=  6305 local x,y,z forces =    1.2644E+04   -9.1515E+02    0.0000E+00  setid=       0
 node=  6306 local x,y,z forces =   -1.2605E+04   -4.5117E+02    0.0000E+00  setid=       0
 node=  6307 local x,y,z forces =   -5.7652E+03   -9.0236E+02    0.0000E+00  setid=       0
 node=  6308 local x,y,z forces =   -9.0856E+00   -9.0247E+02    0.0000E+00  setid=       0
 node=  6309 local x,y,z forces =    5.7512E+03   -9.0295E+02    0.0000E+00  setid=       0
 node=  6310 local x,y,z forces =    1.2638E+04   -4.5162E+02    0.0000E+00  setid=       0
 node=  6311 local x,y,z forces =   -1.2602E+04    5.5115E-10    0.0000E+00  setid=       0
 node=  6312 local x,y,z forces =   -5.7641E+03    1.0441E-09    0.0000E+00  setid=       0
 node=  6313 local x,y,z forces =   -9.1120E+00    1.4188E-10    0.0000E+00  setid=       0
 node=  6314 local x,y,z forces =    5.7502E+03   -1.0914E-09    0.0000E+00  setid=       0
 node=  6315 local x,y,z forces =    1.2635E+04   -7.3851E-10    0.0000E+00  setid=       0
 node=  6316 local x,y,z forces =   -1.2605E+04    4.5117E+02    0.0000E+00  setid=       0
 node=  6317 local x,y,z forces =   -5.7652E+03    9.0236E+02    0.0000E+00  setid=       0
 node=  6318 local x,y,z forces =   -9.0856E+00    9.0247E+02    0.0000E+00  setid=       0
 node=  6319 local x,y,z forces =    5.7512E+03    9.0295E+02    0.0000E+00  setid=       0
 node=  6320 local x,y,z forces =    1.2638E+04    4.5162E+02    0.0000E+00  setid=       0
 node=  6321 local x,y,z forces =   -1.2611E+04    9.1418E+02    0.0000E+00  setid=       0
 node=  6322 local x,y,z forces =   -5.7683E+03    1.8287E+03    0.0000E+00  setid=       0
 node=  6323 local x,y,z forces =   -9.0063E+00    1.8293E+03    0.0000E+00  setid=       0
 node=  6324 local x,y,z forces =    5.7545E+03    1.8300E+03    0.0000E+00  setid=       0
 node=  6325 local x,y,z forces =    1.2644E+04    9.1515E+02    0.0000E+00  setid=       0
 node=  6326 local x,y,z forces =   -1.2625E+04    1.3758E+03    0.0000E+00  setid=       0
 node=  6327 local x,y,z forces =   -5.7743E+03    2.7523E+03    0.0000E+00  setid=       0
 node=  6328 local x,y,z forces =   -8.8851E+00    2.7531E+03    0.0000E+00  setid=       0
 node=  6329 local x,y,z forces =    5.7606E+03    2.7543E+03    0.0000E+00  setid=       0
 node=  6330 local x,y,z forces =    1.2658E+04    1.3774E+03    0.0000E+00  setid=       0
 node=  6331 local x,y,z forces =   -1.2645E+04    1.8814E+03    0.0000E+00  setid=       0
 node=  6332 local x,y,z forces =   -5.7840E+03    3.7649E+03    0.0000E+00  setid=       0
 node=  6333 local x,y,z forces =   -8.7340E+00    3.7674E+03    0.0000E+00  setid=       0
 node=  6334 local x,y,z forces =    5.7706E+03    3.7679E+03    0.0000E+00  setid=       0
 node=  6335 local x,y,z forces =    1.2678E+04    1.8837E+03    0.0000E+00  setid=       0
 node=  6336 local x,y,z forces =   -1.2682E+04    2.3724E+03    0.0000E+00  setid=       0
 node=  6337 local x,y,z forces =   -5.8001E+03    4.7479E+03    0.0000E+00  setid=       0
 node=  6338 local x,y,z forces =   -8.5919E+00    4.7510E+03    0.0000E+00  setid=       0
 node=  6339 local x,y,z forces =    5.7868E+03    4.7520E+03    0.0000E+00  setid=       0
 node=  6340 local x,y,z forces =    1.2714E+04    2.3756E+03    0.0000E+00  setid=       0
 node=  6341 local x,y,z forces =   -1.2730E+04    2.9768E+03    0.0000E+00  setid=       0
 node=  6342 local x,y,z forces =   -5.8255E+03    5.9614E+03    0.0000E+00  setid=       0
 node=  6343 local x,y,z forces =   -8.5042E+00    5.9694E+03    0.0000E+00  setid=       0
 node=  6344 local x,y,z forces =    5.8124E+03    5.9672E+03    0.0000E+00  setid=       0
 node=  6345 local x,y,z forces =    1.2761E+04    2.9813E+03    0.0000E+00  setid=       0
 node=  6346 local x,y,z forces =   -1.2828E+04    3.5086E+03    0.0000E+00  setid=       0
 node=  6347 local x,y,z forces =   -5.8696E+03    7.0242E+03    0.0000E+00  setid=       0
 node=  6348 local x,y,z forces =   -8.6011E+00    7.0308E+03    0.0000E+00  setid=       0
 node=  6349 local x,y,z forces =    5.8563E+03    7.0319E+03    0.0000E+00  setid=       0
 node=  6350 local x,y,z forces =    1.2858E+04    3.5145E+03    0.0000E+00  setid=       0
 node=  6351 local x,y,z forces =   -1.2948E+04    4.3628E+03    0.0000E+00  setid=       0
 node=  6352 local x,y,z forces =   -5.9426E+03    8.7407E+03    0.0000E+00  setid=       0
 node=  6353 local x,y,z forces =   -9.0410E+00    8.7527E+03    0.0000E+00  setid=       0
 node=  6354 local x,y,z forces =    5.9288E+03    8.7513E+03    0.0000E+00  setid=       0
 node=  6355 local x,y,z forces =    1.2976E+04    4.3710E+03    0.0000E+00  setid=       0
 node=  6356 local x,y,z forces =   -1.3247E+04    4.9004E+03    0.0000E+00  setid=       0
 node=  6357 local x,y,z forces =   -6.0629E+03    9.7907E+03    0.0000E+00  setid=       0
 node=  6358 local x,y,z forces =   -1.0318E+01    9.7787E+03    0.0000E+00  setid=       0
 node=  6359 local x,y,z forces =    6.0471E+03    9.8040E+03    0.0000E+00  setid=       0
 node=  6360 local x,y,z forces =    1.3272E+04    4.9107E+03    0.0000E+00  setid=       0
 node=  6361 local x,y,z forces =   -1.3552E+04    6.6412E+03    0.0000E+00  setid=       0
 node=  6362 local x,y,z forces =   -6.2176E+03    1.3320E+04    0.0000E+00  setid=       0
 node=  6363 local x,y,z forces =   -1.3118E+01    1.3357E+04    0.0000E+00  setid=       0
 node=  6364 local x,y,z forces =    6.1981E+03    1.3339E+04    0.0000E+00  setid=       0
 node=  6365 local x,y,z forces =    1.3572E+04    6.6561E+03    0.0000E+00  setid=       0
 node=  6366 local x,y,z forces =   -1.5283E+04    6.5376E+03    0.0000E+00  setid=       0
 node=  6367 local x,y,z forces =   -6.4592E+03    1.3236E+04    0.0000E+00  setid=       0
 node=  6368 local x,y,z forces =   -2.1024E+01    1.3396E+04    0.0000E+00  setid=       0
 node=  6369 local x,y,z forces =    6.4281E+03    1.3254E+04    0.0000E+00  setid=       0
 node=  6370 local x,y,z forces =    1.5297E+04    6.5528E+03    0.0000E+00  setid=       0
 node=  6371 local x,y,z forces =   -8.6212E+03    1.0256E+04    0.0000E+00  setid=       0
 node=  6372 local x,y,z forces =   -3.3385E+03    2.0072E+04    0.0000E+00  setid=       0
 node=  6373 local x,y,z forces =   -1.3937E+01    1.9747E+04    0.0000E+00  setid=       0
 node=  6374 local x,y,z forces =    3.3176E+03    2.0096E+04    0.0000E+00  setid=       0
 node=  6375 local x,y,z forces =    8.6268E+03    1.0274E+04    0.0000E+00  setid=       0
             force resultants   =   -7.4474E-01   -2.7339E-09   -6.1536E+06
 output at time =   1.00000E-03
 node=     1 local x,y,z forces =   -1.7243E+04   -2.0504E+04   -5.6697E+04  setid=       0
 node=     2 local x,y,z forces =   -6.6824E+03   -4.0131E+04   -1.0073E+05  setid=       0
 node=     3 local x,y,z forces =   -3.5226E+01   -3.9487E+04   -9.5762E+04  setid=       0
 node=     4 local x,y,z forces =    6.6301E+03   -4.0192E+04   -1.0087E+05  setid=       0
 node=     5 local x,y,z forces =    1.7257E+04   -2.0550E+04   -5.6804E+04  setid=       0
 node=     6 local x,y,z forces =   -3.0564E+04   -1.3065E+04   -8.8174E+04  setid=       0
 node=     7 local x,y,z forces =   -1.2927E+04   -2.6456E+04   -1.5091E+05  setid=       0
 node=     8 local x,y,z forces =   -5.3129E+01   -2.6783E+04   -1.4034E+05  setid=       0
 node=     9 local x,y,z forces =    1.2849E+04   -2.6503E+04   -1.5114E+05  setid=       0
 node=    10 local x,y,z forces =    3.0598E+04   -1.3103E+04   -8.8351E+04  setid=       0
 node=    11 local x,y,z forces =   -2.7100E+04   -1.3280E+04   -7.4879E+04  setid=       0
 node=    12 local x,y,z forces =   -1.2440E+04   -2.6638E+04   -1.2493E+05  setid=       0
 node=    13 local x,y,z forces =   -3.3090E+01   -2.6717E+04   -1.1422E+05  setid=       0
 node=    14 local x,y,z forces =    1.2391E+04   -2.6686E+04   -1.2515E+05  setid=       0
 node=    15 local x,y,z forces =    2.7149E+04   -1.3317E+04   -7.5066E+04  setid=       0
 node=    16 local x,y,z forces =   -2.6489E+04   -9.7986E+03   -7.4075E+04  setid=       0
 node=    17 local x,y,z forces =   -1.2129E+04   -1.9578E+04   -1.2360E+05  setid=       0
 node=    18 local x,y,z forces =   -2.5926E+01   -1.9557E+04   -1.1286E+05  setid=       0
 node=    19 local x,y,z forces =    1.2090E+04   -1.9612E+04   -1.2385E+05  setid=       0
 node=    20 local x,y,z forces =    2.6550E+04   -9.8247E+03   -7.4290E+04  setid=       0
 node=    21 local x,y,z forces =   -2.5889E+04   -8.7249E+03   -7.1879E+04  setid=       0
 node=    22 local x,y,z forces =   -1.1888E+04   -1.7481E+04   -1.1931E+05  setid=       0
 node=    23 local x,y,z forces =   -2.2623E+01   -1.7507E+04   -1.0847E+05  setid=       0
 node=    24 local x,y,z forces =    1.1854E+04   -1.7508E+04   -1.1958E+05  setid=       0
 node=    25 local x,y,z forces =    2.5958E+04   -8.7458E+03   -7.2112E+04  setid=       0
 node=    26 local x,y,z forces =   -2.5647E+04   -7.0167E+03   -7.1516E+04  setid=       0
 node=    27 local x,y,z forces =   -1.1742E+04   -1.4048E+04   -1.1872E+05  setid=       0
 node=    28 local x,y,z forces =   -2.1463E+01   -1.4063E+04   -1.0789E+05  setid=       0
 node=    29 local x,y,z forces =    1.1709E+04   -1.4067E+04   -1.1900E+05  setid=       0
 node=    30 local x,y,z forces =    2.5722E+04   -7.0317E+03   -7.1764E+04  setid=       0
 node=    31 local x,y,z forces =   -2.5451E+04   -5.9537E+03   -7.0828E+04  setid=       0
 node=    32 local x,y,z forces =   -1.1653E+04   -1.1923E+04   -1.1741E+05  setid=       0
 node=    33 local x,y,z forces =   -2.1183E+01   -1.1940E+04   -1.0658E+05  setid=       0
 node=    34 local x,y,z forces =    1.1621E+04   -1.1938E+04   -1.1770E+05  setid=       0
 node=    35 local x,y,z forces =    2.5529E+04   -5.9651E+03   -7.1086E+04  setid=       0
 node=    36 local x,y,z forces =   -2.5354E+04   -4.7450E+03   -7.0660E+04  setid=       0
 node=    37 local x,y,z forces =   -1.1603E+04   -9.4958E+03   -1.1713E+05  setid=       0
 node=    38 local x,y,z forces =   -2.1385E+01   -9.5029E+03   -1.0630E+05  setid=       0
 node=    39 local x,y,z forces =    1.1570E+04   -9.5065E+03   -1.1743E+05  setid=       0
 node=    40 local x,y,z forces =    2.5435E+04   -4.7531E+03   -7.0925E+04  setid=       0
 node=    41 local x,y,z forces =   -2.5280E+04   -3.7630E+03   -7.0403E+04  setid=       0
 node=    42 local x,y,z forces =   -1.1570E+04   -7.5301E+03   -1.1664E+05  setid=       0
 node=    43 local x,y,z forces =   -2.1732E+01   -7.5358E+03   -1.0581E+05  setid=       0
 node=    44 local x,y,z forces =    1.1537E+04   -7.5378E+03   -1.1694E+05  setid=       0
 node=    45 local x,y,z forces =    2.5362E+04   -3.7689E+03   -7.0674E+04  setid=       0
 node=    46 local x,y,z forces =   -2.5240E+04   -2.7519E+03   -7.0330E+04  setid=       0
 node=    47 local x,y,z forces =   -1.1551E+04   -5.5048E+03   -1.1651E+05  setid=       0
 node=    48 local x,y,z forces =   -2.2107E+01   -5.5068E+03   -1.0568E+05  setid=       0
 node=    49 local x,y,z forces =    1.1517E+04   -5.5100E+03   -1.1682E+05  setid=       0
 node=    50 local x,y,z forces =    2.5324E+04   -2.7559E+03   -7.0605E+04  setid=       0
 node=    51 local x,y,z forces =   -2.5212E+04   -1.8285E+03   -7.0230E+04  setid=       0
 node=    52 local x,y,z forces =   -1.1539E+04   -3.6577E+03   -1.1632E+05  setid=       0
 node=    53 local x,y,z forces =   -2.2409E+01   -3.6591E+03   -1.0549E+05  setid=       0
 node=    54 local x,y,z forces =    1.1505E+04   -3.6609E+03   -1.1663E+05  setid=       0
 node=    55 local x,y,z forces =    2.5296E+04   -1.8310E+03   -7.0508E+04  setid=       0
 node=    56 local x,y,z forces =   -2.5199E+04   -9.0242E+02   -7.0212E+04  setid=       0
 node=    57 local x,y,z forces =   -1.1533E+04   -1.8048E+03   -1.1628E+05  setid=       0
 node=    58 local x,y,z forces =   -2.2608E+01   -1.8052E+03   -1.0546E+05  setid=       0
 node=    59 local x,y,z forces =    1.1498E+04   -1.8064E+03   -1.1660E+05  setid=       0
 node=    60 local x,y,z forces =    2.5284E+04   -9.0360E+02   -7.0491E+04  setid=       0
 node=    61 local x,y,z forces =   -2.5193E+04   -2.1828E-11   -7.0184E+04  setid=       0
 node=    62 local x,y,z forces =   -1.1531E+04   -7.2760E-12   -1.1623E+05  setid=       0
 node=    63 local x,y,z forces =   -2.2675E+01    7.2760E-12   -1.0540E+05  setid=       0
 node=    64 local x,y,z forces =    1.1496E+04    1.8190E-11   -1.1654E+05  setid=       0
 node=    65 local x,y,z forces =    2.5278E+04    3.6380E-12   -7.0463E+04  setid=       0
 node=    66 local x,y,z forces =   -2.5199E+04    9.0242E+02   -7.0212E+04  setid=       0
 node=    67 local x,y,z forces =   -1.1533E+04    1.8048E+03   -1.1628E+05  setid=       0
 node=    68 local x,y,z forces =   -2.2608E+01    1.8052E+03   -1.0546E+05  setid=       0
 node=    69 local x,y,z forces =    1.1498E+04    1.8064E+03   -1.1660E+05  setid=       0
 node=    70 local x,y,z forces =    2.5284E+04    9.0360E+02   -7.0491E+04  setid=       0
 node=    71 local x,y,z forces =   -2.5212E+04    1.8285E+03   -7.0230E+04  setid=       0
 node=    72 local x,y,z forces =   -1.1539E+04    3.6577E+03   -1.1632E+05  setid=       0
 node=    73 local x,y,z forces =   -2.2409E+01    3.6591E+03   -1.0549E+05  setid=       0
 node=    74 local x,y,z forces =    1.1505E+04    3.6609E+03   -1.1663E+05  setid=       0
 node=    75 local x,y,z forces =    2.5296E+04    1.8310E+03   -7.0508E+04  setid=       0
 node=    76 local x,y,z forces =   -2.5240E+04    2.7519E+03   -7.0330E+04  setid=       0
 node=    77 local x,y,z forces =   -1.1551E+04    5.5048E+03   -1.1651E+05  setid=       0
 node=    78 local x,y,z forces =   -2.2107E+01    5.5068E+03   -1.0568E+05  setid=       0
 node=    79 local x,y,z forces =    1.1517E+04    5.5100E+03   -1.1682E+05  setid=       0
 node=    80 local x,y,z forces =    2.5324E+04    2.7559E+03   -7.0605E+04  setid=       0
 node=    81 local x,y,z forces =   -2.5280E+04    3.7630E+03   -7.0403E+04  setid=       0
 node=    82 local x,y,z forces =   -1.1570E+04    7.5301E+03   -1.1664E+05  setid=       0
 node=    83 local x,y,z forces =   -2.1732E+01    7.5358E+03   -1.0581E+05  setid=       0
 node=    84 local x,y,z forces =    1.1537E+04    7.5378E+03   -1.1694E+05  setid=       0
 node=    85 local x,y,z forces =    2.5362E+04    3.7689E+03   -7.0674E+04  setid=       0
 node=    86 local x,y,z forces =   -2.5354E+04    4.7450E+03   -7.0660E+04  setid=       0
 node=    87 local x,y,z forces =   -1.1603E+04    9.4958E+03   -1.1713E+05  setid=       0
 node=    88 local x,y,z forces =   -2.1385E+01    9.5029E+03   -1.0630E+05  setid=       0
 node=    89 local x,y,z forces =    1.1570E+04    9.5065E+03   -1.1743E+05  setid=       0
 node=    90 local x,y,z forces =    2.5435E+04    4.7531E+03   -7.0925E+04  setid=       0
 node=    91 local x,y,z forces =   -2.5451E+04    5.9537E+03   -7.0828E+04  setid=       0
 node=    92 local x,y,z forces =   -1.1653E+04    1.1923E+04   -1.1741E+05  setid=       0
 node=    93 local x,y,z forces =   -2.1183E+01    1.1940E+04   -1.0658E+05  setid=       0
 node=    94 local x,y,z forces =    1.1621E+04    1.1938E+04   -1.1770E+05  setid=       0
 node=    95 local x,y,z forces =    2.5529E+04    5.9651E+03   -7.1086E+04  setid=       0
 node=    96 local x,y,z forces =   -2.5647E+04    7.0167E+03   -7.1516E+04  setid=       0
 node=    97 local x,y,z forces =   -1.1742E+04    1.4048E+04   -1.1872E+05  setid=       0
 node=    98 local x,y,z forces =   -2.1463E+01    1.4063E+04   -1.0789E+05  setid=       0
 node=    99 local x,y,z forces =    1.1709E+04    1.4067E+04   -1.1900E+05  setid=       0
 node=   100 local x,y,z forces =    2.5722E+04    7.0317E+03   -7.1764E+04  setid=       0
 node=   101 local x,y,z forces =   -2.5889E+04    8.7249E+03   -7.1879E+04  setid=       0
 node=   102 local x,y,z forces =   -1.1888E+04    1.7481E+04   -1.1931E+05  setid=       0
 node=   103 local x,y,z forces =   -2.2623E+01    1.7507E+04   -1.0847E+05  setid=       0
 node=   104 local x,y,z forces =    1.1854E+04    1.7508E+04   -1.1958E+05  setid=       0
 node=   105 local x,y,z forces =    2.5958E+04    8.7458E+03   -7.2112E+04  setid=       0
 node=   106 local x,y,z forces =   -2.6489E+04    9.7986E+03   -7.4075E+04  setid=       0
 node=   107 local x,y,z forces =   -1.2129E+04    1.9578E+04   -1.2360E+05  setid=       0
 node=   108 local x,y,z forces =   -2.5926E+01    1.9557E+04   -1.1286E+05  setid=       0
 node=   109 local x,y,z forces =    1.2090E+04    1.9612E+04   -1.2385E+05  setid=       0
 node=   110 local x,y,z forces =    2.6550E+04    9.8247E+03   -7.4290E+04  setid=       0
 node=   111 local x,y,z forces =   -2.7100E+04    1.3280E+04   -7.4879E+04  setid=       0
 node=   112 local x,y,z forces =   -1.2440E+04    2.6638E+04   -1.2493E+05  setid=       0
 node=   113 local x,y,z forces =   -3.3090E+01    2.6717E+04   -1.1422E+05  setid=       0
 node=   114 local x,y,z forces =    1.2391E+04    2.6686E+04   -1.2515E+05  setid=       0
 node=   115 local x,y,z forces =    2.7149E+04    1.3317E+04   -7.5066E+04  setid=       0
 node=   116 local x,y,z forces =   -3.0564E+04    1.3065E+04   -8.8174E+04  setid=       0
 node=   117 local x,y,z forces =   -1.2927E+04    2.6456E+04   -1.5091E+05  setid=       0
 node=   118 local x,y,z forces =   -5.3129E+01    2.6783E+04   -1.4034E+05  setid=       0
 node=   119 local x,y,z forces =    1.2849E+04    2.6503E+04   -1.5114E+05  setid=       0
 node=   120 local x,y,z forces =    3.0598E+04    1.3103E+04   -8.8351E+04  setid=       0
 node=   121 local x,y,z forces =   -1.7243E+04    2.0504E+04   -5.6697E+04  setid=       0
 node=   122 local x,y,z forces =   -6.6824E+03    4.0131E+04   -1.0073E+05  setid=       0
 node=   123 local x,y,z forces =   -3.5226E+01    3.9487E+04   -9.5762E+04  setid=       0
 node=   124 local x,y,z forces =    6.6301E+03    4.0192E+04   -1.0087E+05  setid=       0
 node=   125 local x,y,z forces =    1.7257E+04    2.0550E+04   -5.6804E+04  setid=       0
 node=  6251 local x,y,z forces =   -1.7243E+04   -2.0504E+04    0.0000E+00  setid=       0
 node=  6252 local x,y,z forces =   -6.6824E+03   -4.0131E+04    0.0000E+00  setid=       0
 node=  6253 local x,y,z forces =   -3.5226E+01   -3.9487E+04    0.0000E+00  setid=       0
 node=  6254 local x,y,z forces =    6.6301E+03   -4.0192E+04    0.0000E+00  setid=       0
 node=  6255 local x,y,z forces =    1.7257E+04   -2.0550E+04    0.0000E+00  setid=       0
 node=  6256 local x,y,z forces =   -3.0564E+04   -1.3065E+04    0.0000E+00  setid=       0
 node=  6257 local x,y,z forces =   -1.2927E+04   -2.6456E+04    0.0000E+00  setid=       0
 node=  6258 local x,y,z forces =   -5.3129E+01   -2.6783E+04    0.0000E+00  setid=       0
 node=  6259 local x,y,z forces =    1.2849E+04   -2.6503E+04    0.0000E+00  setid=       0
 node=  6260 local x,y,z forces =    3.0598E+04   -1.3103E+04    0.0000E+00  setid=       0
 node=  6261 local x,y,z forces =   -2.7100E+04   -1.3280E+04    0.0000E+00  setid=       0
 node=  6262 local x,y,z forces =   -1.2440E+04   -2.6638E+04    0.0000E+00  setid=       0
 node=  6263 local x,y,z forces =   -3.3090E+01   -2.6717E+04    0.0000E+00  setid=       0
 node=  6264 local x,y,z forces =    1.2391E+04   -2.6686E+04    0.0000E+00  setid=       0
 node=  6265 local x,y,z forces =    2.7149E+04   -1.3317E+04    0.0000E+00  setid=       0
 node=  6266 local x,y,z forces =   -2.6489E+04   -9.7986E+03    0.0000E+00  setid=       0
 node=  6267 local x,y,z forces =   -1.2129E+04   -1.9578E+04    0.0000E+00  setid=       0
 node=  6268 local x,y,z forces =   -2.5926E+01   -1.9557E+04    0.0000E+00  setid=       0
 node=  6269 local x,y,z forces =    1.2090E+04   -1.9612E+04    0.0000E+00  setid=       0
 node=  6270 local x,y,z forces =    2.6550E+04   -9.8247E+03    0.0000E+00  setid=       0
 node=  6271 local x,y,z forces =   -2.5889E+04   -8.7249E+03    0.0000E+00  setid=       0
 node=  6272 local x,y,z forces =   -1.1888E+04   -1.7481E+04    0.0000E+00  setid=       0
 node=  6273 local x,y,z forces =   -2.2623E+01   -1.7507E+04    0.0000E+00  setid=       0
 node=  6274 local x,y,z forces =    1.1854E+04   -1.7508E+04    0.0000E+00  setid=       0
 node=  6275 local x,y,z forces =    2.5958E+04   -8.7458E+03    0.0000E+00  setid=       0
 node=  6276 local x,y,z forces =   -2.5647E+04   -7.0167E+03    0.0000E+00  setid=       0
 node=  6277 local x,y,z forces =   -1.1742E+04   -1.4048E+04    0.0000E+00  setid=       0
 node=  6278 local x,y,z forces =   -2.1463E+01   -1.4063E+04    0.0000E+00  setid=       0
 node=  6279 local x,y,z forces =    1.1709E+04   -1.4067E+04    0.0000E+00  setid=       0
 node=  6280 local x,y,z forces =    2.5722E+04   -7.0317E+03    0.0000E+00  setid=       0
 node=  6281 local x,y,z forces =   -2.5450E+04   -5.9537E+03    0.0000E+00  setid=       0
 node=  6282 local x,y,z forces =   -1.1653E+04   -1.1923E+04    0.0000E+00  setid=       0
 node=  6283 local x,y,z forces =   -2.1183E+01   -1.1940E+04    0.0000E+00  setid=       0
 node=  6284 local x,y,z forces =    1.1621E+04   -1.1938E+04    0.0000E+00  setid=       0
 node=  6285 local x,y,z forces =    2.5529E+04   -5.9651E+03    0.0000E+00  setid=       0
 node=  6286 local x,y,z forces =   -2.5354E+04   -4.7450E+03    0.0000E+00  setid=       0
 node=  6287 local x,y,z forces =   -1.1603E+04   -9.4958E+03    0.0000E+00  setid=       0
 node=  6288 local x,y,z forces =   -2.1385E+01   -9.5029E+03    0.0000E+00  setid=       0
 node=  6289 local x,y,z forces =    1.1570E+04   -9.5065E+03    0.0000E+00  setid=       0
 node=  6290 local x,y,z forces =    2.5435E+04   -4.7531E+03    0.0000E+00  setid=       0
 node=  6291 local x,y,z forces =   -2.5280E+04   -3.7630E+03    0.0000E+00  setid=       0
 node=  6292 local x,y,z forces =   -1.1570E+04   -7.5301E+03    0.0000E+00  setid=       0
 node=  6293 local x,y,z forces =   -2.1732E+01   -7.5358E+03    0.0000E+00  setid=       0
 node=  6294 local x,y,z forces =    1.1537E+04   -7.5378E+03    0.0000E+00  setid=       0
 node=  6295 local x,y,z forces =    2.5362E+04   -3.7689E+03    0.0000E+00  setid=       0
 node=  6296 local x,y,z forces =   -2.5240E+04   -2.7519E+03    0.0000E+00  setid=       0
 node=  6297 local x,y,z forces =   -1.1551E+04   -5.5048E+03    0.0000E+00  setid=       0
 node=  6298 local x,y,z forces =   -2.2107E+01   -5.5068E+03    0.0000E+00  setid=       0
 node=  6299 local x,y,z forces =    1.1517E+04   -5.5100E+03    0.0000E+00  setid=       0
 node=  6300 local x,y,z forces =    2.5324E+04   -2.7559E+03    0.0000E+00  setid=       0
 node=  6301 local x,y,z forces =   -2.5212E+04   -1.8285E+03    0.0000E+00  setid=       0
 node=  6302 local x,y,z forces =   -1.1539E+04   -3.6577E+03    0.0000E+00  setid=       0
 node=  6303 local x,y,z forces =   -2.2409E+01   -3.6591E+03    0.0000E+00  setid=       0
 node=  6304 local x,y,z forces =    1.1505E+04   -3.6609E+03    0.0000E+00  setid=       0
 node=  6305 local x,y,z forces =    2.5296E+04   -1.8310E+03    0.0000E+00  setid=       0
 node=  6306 local x,y,z forces =   -2.5199E+04   -9.0242E+02    0.0000E+00  setid=       0
 node=  6307 local x,y,z forces =   -1.1533E+04   -1.8048E+03    0.0000E+00  setid=       0
 node=  6308 local x,y,z forces =   -2.2608E+01   -1.8052E+03    0.0000E+00  setid=       0
 node=  6309 local x,y,z forces =    1.1498E+04   -1.8064E+03    0.0000E+00  setid=       0
 node=  6310 local x,y,z forces =    2.5283E+04   -9.0360E+02    0.0000E+00  setid=       0
 node=  6311 local x,y,z forces =   -2.5193E+04   -4.8021E-10    0.0000E+00  setid=       0
 node=  6312 local x,y,z forces =   -1.1531E+04   -5.3478E-10    0.0000E+00  setid=       0
 node=  6313 local x,y,z forces =   -2.2675E+01   -4.7658E-10    0.0000E+00  setid=       0
 node=  6314 local x,y,z forces =    1.1496E+04   -7.5306E-10    0.0000E+00  setid=       0
 node=  6315 local x,y,z forces =    2.5278E+04   -2.7285E-10    0.0000E+00  setid=       0
 node=  6316 local x,y,z forces =   -2.5199E+04    9.0242E+02    0.0000E+00  setid=       0
 node=  6317 local x,y,z forces =   -1.1533E+04    1.8048E+03    0.0000E+00  setid=       0
 node=  6318 local x,y,z forces =   -2.2608E+01    1.8052E+03    0.0000E+00  setid=       0
 node=  6319 local x,y,z forces =    1.1498E+04    1.8064E+03    0.0000E+00  setid=       0
 node=  6320 local x,y,z forces =    2.5283E+04    9.0360E+02    0.0000E+00  setid=       0
 node=  6321 local x,y,z forces =   -2.5212E+04    1.8285E+03    0.0000E+00  setid=       0
 node=  6322 local x,y,z forces =   -1.1539E+04    3.6577E+03    0.0000E+00  setid=       0
 node=  6323 local x,y,z forces =   -2.2409E+01    3.6591E+03    0.0000E+00  setid=       0
 node=  6324 local x,y,z forces =    1.1505E+04    3.6609E+03    0.0000E+00  setid=       0
 node=  6325 local x,y,z forces =    2.5296E+04    1.8310E+03    0.0000E+00  setid=       0
 node=  6326 local x,y,z forces =   -2.5240E+04    2.7519E+03    0.0000E+00  setid=       0
 node=  6327 local x,y,z forces =   -1.1551E+04    5.5048E+03    0.0000E+00  setid=       0
 node=  6328 local x,y,z forces =   -2.2107E+01    5.5068E+03    0.0000E+00  setid=       0
 node=  6329 local x,y,z forces =    1.1517E+04    5.5100E+03    0.0000E+00  setid=       0
 node=  6330 local x,y,z forces =    2.5324E+04    2.7559E+03    0.0000E+00  setid=       0
 node=  6331 local x,y,z forces =   -2.5280E+04    3.7630E+03    0.0000E+00  setid=       0
 node=  6332 local x,y,z forces =   -1.1570E+04    7.5301E+03    0.0000E+00  setid=       0
 node=  6333 local x,y,z forces =   -2.1732E+01    7.5358E+03    0.0000E+00  setid=       0
 node=  6334 local x,y,z forces =    1.1537E+04    7.5378E+03    0.0000E+00  setid=       0
 node=  6335 local x,y,z forces =    2.5362E+04    3.7689E+03    0.0000E+00  setid=       0
 node=  6336 local x,y,z forces =   -2.5354E+04    4.7450E+03    0.0000E+00  setid=       0
 node=  6337 local x,y,z forces =   -1.1603E+04    9.4958E+03    0.0000E+00  setid=       0
 node=  6338 local x,y,z forces =   -2.1385E+01    9.5029E+03    0.0000E+00  setid=       0
 node=  6339 local x,y,z forces =    1.1570E+04    9.5065E+03    0.0000E+00  setid=       0
 node=  6340 local x,y,z forces =    2.5435E+04    4.7531E+03    0.0000E+00  setid=       0
 node=  6341 local x,y,z forces =   -2.5450E+04    5.9537E+03    0.0000E+00  setid=       0
 node=  6342 local x,y,z forces =   -1.1653E+04    1.1923E+04    0.0000E+00  setid=       0
 node=  6343 local x,y,z forces =   -2.1183E+01    1.1940E+04    0.0000E+00  setid=       0
 node=  6344 local x,y,z forces =    1.1621E+04    1.1938E+04    0.0000E+00  setid=       0
 node=  6345 local x,y,z forces =    2.5529E+04    5.9651E+03    0.0000E+00  setid=       0
 node=  6346 local x,y,z forces =   -2.5647E+04    7.0167E+03    0.0000E+00  setid=       0
 node=  6347 local x,y,z forces =   -1.1742E+04    1.4048E+04    0.0000E+00  setid=       0
 node=  6348 local x,y,z forces =   -2.1463E+01    1.4063E+04    0.0000E+00  setid=       0
 node=  6349 local x,y,z forces =    1.1709E+04    1.4067E+04    0.0000E+00  setid=       0
 node=  6350 local x,y,z forces =    2.5722E+04    7.0317E+03    0.0000E+00  setid=       0
 node=  6351 local x,y,z forces =   -2.5889E+04    8.7249E+03    0.0000E+00  setid=       0
 node=  6352 local x,y,z forces =   -1.1888E+04    1.7481E+04    0.0000E+00  setid=       0
 node=  6353 local x,y,z forces =   -2.2623E+01    1.7507E+04    0.0000E+00  setid=       0
 node=  6354 local x,y,z forces =    1.1854E+04    1.7508E+04    0.0000E+00  setid=       0
 node=  6355 local x,y,z forces =    2.5958E+04    8.7458E+03    0.0000E+00  setid=       0
 node=  6356 local x,y,z forces =   -2.6489E+04    9.7986E+03    0.0000E+00  setid=       0
 node=  6357 local x,y,z forces =   -1.2129E+04    1.9578E+04    0.0000E+00  setid=       0
 node=  6358 local x,y,z forces =   -2.5926E+01    1.9557E+04    0.0000E+00  setid=       0
 node=  6359 local x,y,z forces =    1.2090E+04    1.9612E+04    0.0000E+00  setid=       0
 node=  6360 local x,y,z forces =    2.6550E+04    9.8247E+03    0.0000E+00  setid=       0
 node=  6361 local x,y,z forces =   -2.7100E+04    1.3280E+04    0.0000E+00  setid=       0
 node=  6362 local x,y,z forces =   -1.2440E+04    2.6638E+04    0.0000E+00  setid=       0
 node=  6363 local x,y,z forces =   -3.3090E+01    2.6717E+04    0.0000E+00  setid=       0
 node=  6364 local x,y,z forces =    1.2391E+04    2.6686E+04    0.0000E+00  setid=       0
 node=  6365 local x,y,z forces =    2.7149E+04    1.3317E+04    0.0000E+00  setid=       0
 node=  6366 local x,y,z forces =   -3.0564E+04    1.3065E+04    0.0000E+00  setid=       0
 node=  6367 local x,y,z forces =   -1.2927E+04    2.6456E+04    0.0000E+00  setid=       0
 node=  6368 local x,y,z forces =   -5.3129E+01    2.6783E+04    0.0000E+00  setid=       0
 node=  6369 local x,y,z forces =    1.2849E+04    2.6503E+04    0.0000E+00  setid=       0
 node=  6370 local x,y,z forces =    3.0598E+04    1.3103E+04    0.0000E+00  setid=       0
 node=  6371 local x,y,z forces =   -1.7243E+04    2.0504E+04    0.0000E+00  setid=       0
 node=  6372 local x,y,z forces =   -6.6824E+03    4.0131E+04    0.0000E+00  setid=       0
 node=  6373 local x,y,z forces =   -3.5226E+01    3.9487E+04    0.0000E+00  setid=       0
 node=  6374 local x,y,z forces =    6.6301E+03    4.0192E+04    0.0000E+00  setid=       0
 node=  6375 local x,y,z forces =    1.7257E+04    2.0550E+04    0.0000E+00  setid=       0
             force resultants   =   -5.5111E+00   -7.7416E-09   -1.2314E+07
 output at time =   1.50000E-03
 node=     1 local x,y,z forces =   -2.5865E+04   -3.0739E+04   -8.5101E+04  setid=       0
 node=     2 local x,y,z forces =   -1.0038E+04   -6.0172E+04   -1.5119E+05  setid=       0
 node=     3 local x,y,z forces =   -7.2092E+01   -5.9219E+04   -1.4376E+05  setid=       0
 node=     4 local x,y,z forces =    9.9314E+03   -6.0294E+04   -1.5147E+05  setid=       0
 node=     5 local x,y,z forces =    2.5891E+04   -3.0831E+04   -8.5312E+04  setid=       0
 node=     6 local x,y,z forces =   -4.5842E+04   -1.9579E+04   -1.3232E+05  setid=       0
 node=     7 local x,y,z forces =   -1.9412E+04   -3.9657E+04   -2.2647E+05  setid=       0
 node=     8 local x,y,z forces =   -1.0872E+02   -4.0160E+04   -2.1064E+05  setid=       0
 node=     9 local x,y,z forces =    1.9253E+04   -3.9752E+04   -2.2692E+05  setid=       0
 node=    10 local x,y,z forces =    4.5908E+04   -1.9656E+04   -1.3268E+05  setid=       0
 node=    11 local x,y,z forces =   -4.0638E+04   -1.9911E+04   -1.1235E+05  setid=       0
 node=    12 local x,y,z forces =   -1.8673E+04   -3.9947E+04   -1.8743E+05  setid=       0
 node=    13 local x,y,z forces =   -6.7589E+01   -4.0080E+04   -1.7141E+05  setid=       0
 node=    14 local x,y,z forces =    1.8575E+04   -4.0045E+04   -1.8787E+05  setid=       0
 node=    15 local x,y,z forces =    4.0734E+04   -1.9988E+04   -1.1272E+05  setid=       0
 node=    16 local x,y,z forces =   -3.9717E+04   -1.4691E+04   -1.1113E+05  setid=       0
 node=    17 local x,y,z forces =   -1.8204E+04   -2.9358E+04   -1.8544E+05  setid=       0
 node=    18 local x,y,z forces =   -5.2741E+01   -2.9336E+04   -1.6937E+05  setid=       0
 node=    19 local x,y,z forces =    1.8125E+04   -2.9428E+04   -1.8594E+05  setid=       0
 node=    20 local x,y,z forces =    3.9839E+04   -1.4745E+04   -1.1156E+05  setid=       0
 node=    21 local x,y,z forces =   -3.8814E+04   -1.3084E+04   -1.0783E+05  setid=       0
 node=    22 local x,y,z forces =   -1.7840E+04   -2.6216E+04   -1.7899E+05  setid=       0
 node=    23 local x,y,z forces =   -4.5815E+01   -2.6264E+04   -1.6278E+05  setid=       0
 node=    24 local x,y,z forces =    1.7772E+04   -2.6273E+04   -1.7952E+05  setid=       0
 node=    25 local x,y,z forces =    3.8953E+04   -1.3127E+04   -1.0829E+05  setid=       0
 node=    26 local x,y,z forces =   -3.8450E+04   -1.0523E+04   -1.0728E+05  setid=       0
 node=    27 local x,y,z forces =   -1.7620E+04   -2.1068E+04   -1.7809E+05  setid=       0
 node=    28 local x,y,z forces =   -4.3336E+01   -2.1096E+04   -1.6190E+05  setid=       0
 node=    29 local x,y,z forces =    1.7555E+04   -2.1109E+04   -1.7866E+05  setid=       0
 node=    30 local x,y,z forces =    3.8600E+04   -1.0554E+04   -1.0778E+05  setid=       0
 node=    31 local x,y,z forces =   -3.8154E+04   -8.9292E+03   -1.0624E+05  setid=       0
 node=    32 local x,y,z forces =   -1.7487E+04   -1.7882E+04   -1.7612E+05  setid=       0
 node=    33 local x,y,z forces =   -4.2687E+01   -1.7912E+04   -1.5992E+05  setid=       0
 node=    34 local x,y,z forces =    1.7423E+04   -1.7913E+04   -1.7671E+05  setid=       0
 node=    35 local x,y,z forces =    3.8311E+04   -8.9528E+03   -1.0676E+05  setid=       0
 node=    36 local x,y,z forces =   -3.8008E+04   -7.1166E+03   -1.0599E+05  setid=       0
 node=    37 local x,y,z forces =   -1.7411E+04   -1.4242E+04   -1.7569E+05  setid=       0
 node=    38 local x,y,z forces =   -4.3056E+01   -1.4256E+04   -1.5951E+05  setid=       0
 node=    39 local x,y,z forces =    1.7346E+04   -1.4265E+04   -1.7630E+05  setid=       0
 node=    40 local x,y,z forces =    3.8171E+04   -7.1335E+03   -1.0652E+05  setid=       0
 node=    41 local x,y,z forces =   -3.7896E+04   -5.6442E+03   -1.0560E+05  setid=       0
 node=    42 local x,y,z forces =   -1.7363E+04   -1.1295E+04   -1.7495E+05  setid=       0
 node=    43 local x,y,z forces =   -4.3735E+01   -1.1305E+04   -1.5877E+05  setid=       0
 node=    44 local x,y,z forces =    1.7297E+04   -1.1311E+04   -1.7557E+05  setid=       0
 node=    45 local x,y,z forces =    3.8063E+04   -5.6564E+03   -1.0614E+05  setid=       0
 node=    46 local x,y,z forces =   -3.7836E+04   -4.1276E+03   -1.0549E+05  setid=       0
 node=    47 local x,y,z forces =   -1.7334E+04   -8.2568E+03   -1.7476E+05  setid=       0
 node=    48 local x,y,z forces =   -4.4488E+01   -8.2612E+03   -1.5858E+05  setid=       0
 node=    49 local x,y,z forces =    1.7267E+04   -8.2678E+03   -1.7539E+05  setid=       0
 node=    50 local x,y,z forces =    3.8005E+04   -4.1359E+03   -1.0604E+05  setid=       0
 node=    51 local x,y,z forces =   -3.7793E+04   -2.7427E+03   -1.0534E+05  setid=       0
 node=    52 local x,y,z forces =   -1.7316E+04   -5.4864E+03   -1.7447E+05  setid=       0
 node=    53 local x,y,z forces =   -4.5098E+01   -5.4894E+03   -1.5829E+05  setid=       0
 node=    54 local x,y,z forces =    1.7248E+04   -5.4933E+03   -1.7511E+05  setid=       0
 node=    55 local x,y,z forces =    3.7964E+04   -2.7480E+03   -1.0590E+05  setid=       0
 node=    56 local x,y,z forces =   -3.7774E+04   -1.3536E+03   -1.0531E+05  setid=       0
 node=    57 local x,y,z forces =   -1.7306E+04   -2.7072E+03   -1.7442E+05  setid=       0
 node=    58 local x,y,z forces =   -4.5502E+01   -2.7081E+03   -1.5824E+05  setid=       0
 node=    59 local x,y,z forces =    1.7238E+04   -2.7105E+03   -1.7506E+05  setid=       0
 node=    60 local x,y,z forces =    3.7945E+04   -1.3561E+03   -1.0587E+05  setid=       0
 node=    61 local x,y,z forces =   -3.7766E+04    7.2760E-12   -1.0527E+05  setid=       0
 node=    62 local x,y,z forces =   -1.7303E+04    0.0000E+00   -1.7434E+05  setid=       0
 node=    63 local x,y,z forces =   -4.5636E+01    2.9104E-11   -1.5816E+05  setid=       0
 node=    64 local x,y,z forces =    1.7235E+04    2.1828E-11   -1.7498E+05  setid=       0
 node=    65 local x,y,z forces =    3.7937E+04    7.2760E-12   -1.0583E+05  setid=       0
 node=    66 local x,y,z forces =   -3.7774E+04    1.3536E+03   -1.0531E+05  setid=       0
 node=    67 local x,y,z forces =   -1.7306E+04    2.7072E+03   -1.7442E+05  setid=       0
 node=    68 local x,y,z forces =   -4.5502E+01    2.7081E+03   -1.5824E+05  setid=       0
 node=    69 local x,y,z forces =    1.7238E+04    2.7105E+03   -1.7506E+05  setid=       0
 node=    70 local x,y,z forces =    3.7945E+04    1.3561E+03   -1.0587E+05  setid=       0
 node=    71 local x,y,z forces =   -3.7793E+04    2.7427E+03   -1.0534E+05  setid=       0
 node=    72 local x,y,z forces =   -1.7316E+04    5.4864E+03   -1.7447E+05  setid=       0
 node=    73 local x,y,z forces =   -4.5098E+01    5.4894E+03   -1.5829E+05  setid=       0
 node=    74 local x,y,z forces =    1.7248E+04    5.4933E+03   -1.7511E+05  setid=       0
 node=    75 local x,y,z forces =    3.7964E+04    2.7480E+03   -1.0590E+05  setid=       0
 node=    76 local x,y,z forces =   -3.7836E+04    4.1276E+03   -1.0549E+05  setid=       0
 node=    77 local x,y,z forces =   -1.7334E+04    8.2568E+03   -1.7476E+05  setid=       0
 node=    78 local x,y,z forces =   -4.4488E+01    8.2612E+03   -1.5858E+05  setid=       0
 node=    79 local x,y,z forces =    1.7267E+04    8.2678E+03   -1.7539E+05  setid=       0
 node=    80 local x,y,z forces =    3.8005E+04    4.1359E+03   -1.0604E+05  setid=       0
 node=    81 local x,y,z forces =   -3.7896E+04    5.6442E+03   -1.0560E+05  setid=       0
 node=    82 local x,y,z forces =   -1.7363E+04    1.1295E+04   -1.7495E+05  setid=       0
 node=    83 local x,y,z forces =   -4.3735E+01    1.1305E+04   -1.5877E+05  setid=       0
 node=    84 local x,y,z forces =    1.7297E+04    1.1311E+04   -1.7557E+05  setid=       0
 node=    85 local x,y,z forces =    3.8063E+04    5.6564E+03   -1.0614E+05  setid=       0
 node=    86 local x,y,z forces =   -3.8008E+04    7.1166E+03   -1.0599E+05  setid=       0
 node=    87 local x,y,z forces =   -1.7411E+04    1.4242E+04   -1.7569E+05  setid=       0
 node=    88 local x,y,z forces =   -4.3056E+01    1.4256E+04   -1.5951E+05  setid=       0
 node=    89 local x,y,z forces =    1.7346E+04    1.4265E+04   -1.7630E+05  setid=       0
 node=    90 local x,y,z forces =    3.8171E+04    7.1335E+03   -1.0652E+05  setid=       0
 node=    91 local x,y,z forces =   -3.8154E+04    8.9292E+03   -1.0624E+05  setid=       0
 node=    92 local x,y,z forces =   -1.7487E+04    1.7882E+04   -1.7612E+05  setid=       0
 node=    93 local x,y,z forces =   -4.2687E+01    1.7912E+04   -1.5992E+05  setid=       0
 node=    94 local x,y,z forces =    1.7423E+04    1.7913E+04   -1.7671E+05  setid=       0
 node=    95 local x,y,z forces =    3.8311E+04    8.9528E+03   -1.0676E+05  setid=       0
 node=    96 local x,y,z forces =   -3.8450E+04    1.0523E+04   -1.0728E+05  setid=       0
 node=    97 local x,y,z forces =   -1.7620E+04    2.1068E+04   -1.7809E+05  setid=       0
 node=    98 local x,y,z forces =   -4.3336E+01    2.1096E+04   -1.6190E+05  setid=       0
 node=    99 local x,y,z forces =    1.7555E+04    2.1109E+04   -1.7866E+05  setid=       0
 node=   100 local x,y,z forces =    3.8600E+04    1.0554E+04   -1.0778E+05  setid=       0
[...]
 node=    37 local x,y,z forces =   -2.3766E+05    4.9588E+04    2.0573E+06  setid=       0
 node=    38 local x,y,z forces =   -3.3124E+05   -3.9800E+04   -2.2869E+05  setid=       0
 node=    39 local x,y,z forces =   -2.2143E+05   -1.2961E+05   -2.5228E+06  setid=       0
 node=    40 local x,y,z forces =    6.5882E+05   -8.7921E+04   -2.2138E+06  setid=       0
 node=    41 local x,y,z forces =    5.8142E+05    3.1115E+04    1.8413E+06  setid=       0
 node=    42 local x,y,z forces =   -2.4213E+05    3.2748E+04    2.1001E+06  setid=       0
 node=    43 local x,y,z forces =   -3.3754E+05   -3.2198E+04   -2.3712E+05  setid=       0
 node=    44 local x,y,z forces =   -2.2585E+05   -9.7364E+04   -2.5841E+06  setid=       0
 node=    45 local x,y,z forces =    6.7464E+05   -6.5366E+04   -2.2685E+06  setid=       0
 node=    46 local x,y,z forces =    5.8983E+05    1.9801E+04    1.8690E+06  setid=       0
 node=    47 local x,y,z forces =   -2.4684E+05    1.9985E+04    2.1312E+06  setid=       0
 node=    48 local x,y,z forces =   -3.4436E+05   -2.4041E+04   -2.4407E+05  setid=       0
 node=    49 local x,y,z forces =   -2.3094E+05   -6.8101E+04   -2.6305E+06  setid=       0
 node=    50 local x,y,z forces =    6.8505E+05   -4.5335E+04   -2.3086E+06  setid=       0
 node=    51 local x,y,z forces =    5.9479E+05    1.1913E+04    1.8862E+06  setid=       0
 node=    52 local x,y,z forces =   -2.5092E+05    1.1612E+04    2.1506E+06  setid=       0
 node=    53 local x,y,z forces =   -3.4987E+05   -1.6111E+04   -2.4871E+05  setid=       0
 node=    54 local x,y,z forces =   -2.3468E+05   -4.3835E+04   -2.6601E+06  setid=       0
 node=    55 local x,y,z forces =    6.9177E+05   -2.8995E+04   -2.3340E+06  setid=       0
 node=    56 local x,y,z forces =    5.9755E+05    5.4613E+03    1.8962E+06  setid=       0
 node=    57 local x,y,z forces =   -2.5352E+05    5.1653E+03    2.1621E+06  setid=       0
 node=    58 local x,y,z forces =   -3.5351E+05   -8.0247E+03   -2.5164E+05  setid=       0
 node=    59 local x,y,z forces =   -2.3729E+05   -2.1194E+04   -2.6780E+06  setid=       0
 node=    60 local x,y,z forces =    6.9541E+05   -1.3964E+04   -2.3491E+06  setid=       0
 node=    61 local x,y,z forces =    5.9836E+05   -6.9849E-10    1.8992E+06  setid=       0
 node=    62 local x,y,z forces =   -2.5446E+05   -1.0477E-09    2.1655E+06  setid=       0
 node=    63 local x,y,z forces =   -3.5471E+05    5.8208E-11   -2.5251E+05  setid=       0
 node=    64 local x,y,z forces =   -2.3805E+05    1.5134E-09   -2.6833E+06  setid=       0
 node=    65 local x,y,z forces =    6.9662E+05    1.3970E-09   -2.3536E+06  setid=       0
 node=    66 local x,y,z forces =    5.9755E+05   -5.4613E+03    1.8962E+06  setid=       0
 node=    67 local x,y,z forces =   -2.5352E+05   -5.1653E+03    2.1621E+06  setid=       0
 node=    68 local x,y,z forces =   -3.5351E+05    8.0247E+03   -2.5164E+05  setid=       0
 node=    69 local x,y,z forces =   -2.3729E+05    2.1194E+04   -2.6780E+06  setid=       0
 node=    70 local x,y,z forces =    6.9541E+05    1.3964E+04   -2.3491E+06  setid=       0
 node=    71 local x,y,z forces =    5.9479E+05   -1.1913E+04    1.8862E+06  setid=       0
 node=    72 local x,y,z forces =   -2.5092E+05   -1.1612E+04    2.1506E+06  setid=       0
 node=    73 local x,y,z forces =   -3.4987E+05    1.6111E+04   -2.4871E+05  setid=       0
 node=    74 local x,y,z forces =   -2.3468E+05    4.3835E+04   -2.6601E+06  setid=       0
 node=    75 local x,y,z forces =    6.9177E+05    2.8995E+04   -2.3340E+06  setid=       0
 node=    76 local x,y,z forces =    5.8983E+05   -1.9801E+04    1.8690E+06  setid=       0
 node=    77 local x,y,z forces =   -2.4684E+05   -1.9985E+04    2.1312E+06  setid=       0
 node=    78 local x,y,z forces =   -3.4436E+05    2.4041E+04   -2.4407E+05  setid=       0
 node=    79 local x,y,z forces =   -2.3094E+05    6.8101E+04   -2.6305E+06  setid=       0
 node=    80 local x,y,z forces =    6.8505E+05    4.5335E+04   -2.3086E+06  setid=       0
 node=    81 local x,y,z forces =    5.8142E+05   -3.1115E+04    1.8413E+06  setid=       0
 node=    82 local x,y,z forces =   -2.4213E+05   -3.2748E+04    2.1001E+06  setid=       0
 node=    83 local x,y,z forces =   -3.3754E+05    3.2198E+04   -2.3712E+05  setid=       0
 node=    84 local x,y,z forces =   -2.2585E+05    9.7364E+04   -2.5841E+06  setid=       0
 node=    85 local x,y,z forces =    6.7464E+05    6.5366E+04   -2.2685E+06  setid=       0
 node=    86 local x,y,z forces =    5.6876E+05   -4.5443E+04    1.8026E+06  setid=       0
 node=    87 local x,y,z forces =   -2.3766E+05   -4.9588E+04    2.0573E+06  setid=       0
 node=    88 local x,y,z forces =   -3.3124E+05    3.9800E+04   -2.2869E+05  setid=       0
 node=    89 local x,y,z forces =   -2.2143E+05    1.2961E+05   -2.5228E+06  setid=       0
 node=    90 local x,y,z forces =    6.5882E+05    8.7921E+04   -2.2138E+06  setid=       0
 node=    91 local x,y,z forces =    5.4877E+05   -6.7324E+04    1.7448E+06  setid=       0
 node=    92 local x,y,z forces =   -2.3589E+05   -7.5890E+04    1.9943E+06  setid=       0
 node=    93 local x,y,z forces =   -3.2743E+05    4.8016E+04   -2.1737E+05  setid=       0
 node=    94 local x,y,z forces =   -2.1742E+05    1.7291E+05   -2.4345E+06  setid=       0
 node=    95 local x,y,z forces =    6.3608E+05    1.1865E+05   -2.1342E+06  setid=       0
 node=    96 local x,y,z forces =    5.2001E+05   -9.3211E+04    1.6692E+06  setid=       0
 node=    97 local x,y,z forces =   -2.3989E+05   -1.0785E+05    1.9144E+06  setid=       0
 node=    98 local x,y,z forces =   -3.3195E+05    5.4398E+04   -2.0584E+05  setid=       0
 node=    99 local x,y,z forces =   -2.2025E+05    2.1825E+05   -2.3289E+06  setid=       0
 node=   100 local x,y,z forces =    6.0266E+05    1.5170E+05   -2.0338E+06  setid=       0
 node=   101 local x,y,z forces =    4.7481E+05   -1.3531E+05    1.5562E+06  setid=       0
 node=   102 local x,y,z forces =   -2.5669E+05   -1.5911E+05    1.7960E+06  setid=       0
 node=   103 local x,y,z forces =   -3.5120E+05    6.2823E+04   -1.9003E+05  setid=       0
 node=   104 local x,y,z forces =   -2.2942E+05    2.8751E+05   -2.1752E+06  setid=       0
 node=   105 local x,y,z forces =    5.5511E+05    2.0271E+05   -1.8865E+06  setid=       0
 node=   106 local x,y,z forces =    4.1228E+05   -1.7513E+05    1.4226E+06  setid=       0
 node=   107 local x,y,z forces =   -2.9877E+05   -2.0973E+05    1.6658E+06  setid=       0
 node=   108 local x,y,z forces =   -4.0631E+05    6.4374E+04   -1.8106E+05  setid=       0
 node=   109 local x,y,z forces =   -2.6815E+05    3.4329E+05   -2.0229E+06  setid=       0
 node=   110 local x,y,z forces =    4.8611E+05    2.4550E+05   -1.7221E+06  setid=       0
 node=   111 local x,y,z forces =    3.1192E+05   -2.5542E+05    1.2101E+06  setid=       0
 node=   112 local x,y,z forces =   -3.8786E+05   -3.0333E+05    1.4584E+06  setid=       0
 node=   113 local x,y,z forces =   -5.2359E+05    7.5890E+04   -1.6367E+05  setid=       0
 node=   114 local x,y,z forces =   -3.3675E+05    4.6054E+05   -1.7776E+06  setid=       0
 node=   115 local x,y,z forces =    3.8642E+05    3.3575E+05   -1.4598E+06  setid=       0
 node=   116 local x,y,z forces =    1.9167E+05   -2.5460E+05    1.1153E+06  setid=       0
 node=   117 local x,y,z forces =   -6.2750E+05   -3.0615E+05    1.4529E+06  setid=       0
 node=   118 local x,y,z forces =   -8.4506E+05    5.2971E+04   -2.1501E+05  setid=       0
 node=   119 local x,y,z forces =   -5.6404E+05    4.1958E+05   -1.8717E+06  setid=       0
 node=   120 local x,y,z forces =    2.6666E+05    3.2342E+05   -1.3969E+06  setid=       0
 node=   121 local x,y,z forces =    6.9535E+04   -3.0366E+05    6.6030E+05  setid=       0
 node=   122 local x,y,z forces =   -4.1372E+05   -3.8764E+05    8.9750E+05  setid=       0
 node=   123 local x,y,z forces =   -5.6048E+05    7.3912E+04   -1.5703E+05  setid=       0
 node=   124 local x,y,z forces =   -3.8993E+05    5.2113E+05   -1.2140E+06  setid=       0
 node=   125 local x,y,z forces =    1.0632E+05    3.7208E+05   -8.6189E+05  setid=       0
 node=  6251 local x,y,z forces =    6.9545E+04    3.0367E+05    0.0000E+00  setid=       0
 node=  6252 local x,y,z forces =   -4.1372E+05    3.8766E+05    0.0000E+00  setid=       0
 node=  6253 local x,y,z forces =   -5.6048E+05   -7.3892E+04    0.0000E+00  setid=       0
 node=  6254 local x,y,z forces =   -3.8993E+05   -5.2111E+05    0.0000E+00  setid=       0
 node=  6255 local x,y,z forces =    1.0632E+05   -3.7207E+05    0.0000E+00  setid=       0
 node=  6256 local x,y,z forces =    1.9169E+05    2.5460E+05    0.0000E+00  setid=       0
 node=  6257 local x,y,z forces =   -6.2750E+05    3.0615E+05    0.0000E+00  setid=       0
 node=  6258 local x,y,z forces =   -8.4506E+05   -5.2971E+04    0.0000E+00  setid=       0
 node=  6259 local x,y,z forces =   -5.6404E+05   -4.1958E+05    0.0000E+00  setid=       0
 node=  6260 local x,y,z forces =    2.6664E+05   -3.2342E+05    0.0000E+00  setid=       0
 node=  6261 local x,y,z forces =    3.1194E+05    2.5542E+05    0.0000E+00  setid=       0
 node=  6262 local x,y,z forces =   -3.8786E+05    3.0333E+05    0.0000E+00  setid=       0
 node=  6263 local x,y,z forces =   -5.2359E+05   -7.5890E+04    0.0000E+00  setid=       0
 node=  6264 local x,y,z forces =   -3.3675E+05   -4.6054E+05    0.0000E+00  setid=       0
 node=  6265 local x,y,z forces =    3.8640E+05   -3.3575E+05    0.0000E+00  setid=       0
 node=  6266 local x,y,z forces =    4.1230E+05    1.7513E+05    0.0000E+00  setid=       0
 node=  6267 local x,y,z forces =   -2.9877E+05    2.0973E+05    0.0000E+00  setid=       0
 node=  6268 local x,y,z forces =   -4.0631E+05   -6.4374E+04    0.0000E+00  setid=       0
 node=  6269 local x,y,z forces =   -2.6815E+05   -3.4329E+05    0.0000E+00  setid=       0
 node=  6270 local x,y,z forces =    4.8609E+05   -2.4550E+05    0.0000E+00  setid=       0
 node=  6271 local x,y,z forces =    4.7483E+05    1.3531E+05    0.0000E+00  setid=       0
 node=  6272 local x,y,z forces =   -2.5669E+05    1.5911E+05    0.0000E+00  setid=       0
 node=  6273 local x,y,z forces =   -3.5120E+05   -6.2823E+04    0.0000E+00  setid=       0
 node=  6274 local x,y,z forces =   -2.2942E+05   -2.8751E+05    0.0000E+00  setid=       0
 node=  6275 local x,y,z forces =    5.5509E+05   -2.0271E+05    0.0000E+00  setid=       0
 node=  6276 local x,y,z forces =    5.2003E+05    9.3210E+04    0.0000E+00  setid=       0
 node=  6277 local x,y,z forces =   -2.3988E+05    1.0785E+05    0.0000E+00  setid=       0
 node=  6278 local x,y,z forces =   -3.3195E+05   -5.4398E+04    0.0000E+00  setid=       0
 node=  6279 local x,y,z forces =   -2.2025E+05   -2.1825E+05    0.0000E+00  setid=       0
 node=  6280 local x,y,z forces =    6.0264E+05   -1.5170E+05    0.0000E+00  setid=       0
 node=  6281 local x,y,z forces =    5.4879E+05    6.7324E+04    0.0000E+00  setid=       0
 node=  6282 local x,y,z forces =   -2.3589E+05    7.5890E+04    0.0000E+00  setid=       0
 node=  6283 local x,y,z forces =   -3.2743E+05   -4.8016E+04    0.0000E+00  setid=       0
 node=  6284 local x,y,z forces =   -2.1742E+05   -1.7291E+05    0.0000E+00  setid=       0
 node=  6285 local x,y,z forces =    6.3606E+05   -1.1865E+05    0.0000E+00  setid=       0
 node=  6286 local x,y,z forces =    5.6878E+05    4.5443E+04    0.0000E+00  setid=       0
 node=  6287 local x,y,z forces =   -2.3766E+05    4.9588E+04    0.0000E+00  setid=       0
 node=  6288 local x,y,z forces =   -3.3124E+05   -3.9800E+04    0.0000E+00  setid=       0
 node=  6289 local x,y,z forces =   -2.2143E+05   -1.2961E+05    0.0000E+00  setid=       0
 node=  6290 local x,y,z forces =    6.5880E+05   -8.7921E+04    0.0000E+00  setid=       0
 node=  6291 local x,y,z forces =    5.8144E+05    3.1115E+04    0.0000E+00  setid=       0
 node=  6292 local x,y,z forces =   -2.4213E+05    3.2748E+04    0.0000E+00  setid=       0
 node=  6293 local x,y,z forces =   -3.3754E+05   -3.2198E+04    0.0000E+00  setid=       0
 node=  6294 local x,y,z forces =   -2.2585E+05   -9.7364E+04    0.0000E+00  setid=       0
 node=  6295 local x,y,z forces =    6.7462E+05   -6.5366E+04    0.0000E+00  setid=       0
 node=  6296 local x,y,z forces =    5.8985E+05    1.9801E+04    0.0000E+00  setid=       0
 node=  6297 local x,y,z forces =   -2.4684E+05    1.9985E+04    0.0000E+00  setid=       0
 node=  6298 local x,y,z forces =   -3.4436E+05   -2.4041E+04    0.0000E+00  setid=       0
 node=  6299 local x,y,z forces =   -2.3094E+05   -6.8101E+04    0.0000E+00  setid=       0
 node=  6300 local x,y,z forces =    6.8503E+05   -4.5335E+04    0.0000E+00  setid=       0
 node=  6301 local x,y,z forces =    5.9481E+05    1.1913E+04    0.0000E+00  setid=       0
 node=  6302 local x,y,z forces =   -2.5092E+05    1.1612E+04    0.0000E+00  setid=       0
 node=  6303 local x,y,z forces =   -3.4987E+05   -1.6111E+04    0.0000E+00  setid=       0
 node=  6304 local x,y,z forces =   -2.3468E+05   -4.3835E+04    0.0000E+00  setid=       0
 node=  6305 local x,y,z forces =    6.9175E+05   -2.8995E+04    0.0000E+00  setid=       0
 node=  6306 local x,y,z forces =    5.9757E+05    5.4613E+03    0.0000E+00  setid=       0
 node=  6307 local x,y,z forces =   -2.5351E+05    5.1653E+03    0.0000E+00  setid=       0
 node=  6308 local x,y,z forces =   -3.5351E+05   -8.0247E+03    0.0000E+00  setid=       0
 node=  6309 local x,y,z forces =   -2.3729E+05   -2.1194E+04    0.0000E+00  setid=       0
 node=  6310 local x,y,z forces =    6.9539E+05   -1.3964E+04    0.0000E+00  setid=       0
 node=  6311 local x,y,z forces =    5.9838E+05   -2.3283E-10    0.0000E+00  setid=       0
 node=  6312 local x,y,z forces =   -2.5446E+05   -2.1537E-09    0.0000E+00  setid=       0
 node=  6313 local x,y,z forces =   -3.5471E+05   -5.8208E-11    0.0000E+00  setid=       0
 node=  6314 local x,y,z forces =   -2.3805E+05    9.3132E-10    0.0000E+00  setid=       0
 node=  6315 local x,y,z forces =    6.9660E+05   -9.3132E-10    0.0000E+00  setid=       0
 node=  6316 local x,y,z forces =    5.9757E+05   -5.4613E+03    0.0000E+00  setid=       0
 node=  6317 local x,y,z forces =   -2.5351E+05   -5.1653E+03    0.0000E+00  setid=       0
 node=  6318 local x,y,z forces =   -3.5351E+05    8.0247E+03    0.0000E+00  setid=       0
 node=  6319 local x,y,z forces =   -2.3729E+05    2.1194E+04    0.0000E+00  setid=       0
 node=  6320 local x,y,z forces =    6.9539E+05    1.3964E+04    0.0000E+00  setid=       0
 node=  6321 local x,y,z forces =    5.9481E+05   -1.1913E+04    0.0000E+00  setid=       0
 node=  6322 local x,y,z forces =   -2.5092E+05   -1.1612E+04    0.0000E+00  setid=       0
 node=  6323 local x,y,z forces =   -3.4987E+05    1.6111E+04    0.0000E+00  setid=       0
 node=  6324 local x,y,z forces =   -2.3468E+05    4.3835E+04    0.0000E+00  setid=       0
 node=  6325 local x,y,z forces =    6.9175E+05    2.8995E+04    0.0000E+00  setid=       0
 node=  6326 local x,y,z forces =    5.8985E+05   -1.9801E+04    0.0000E+00  setid=       0
 node=  6327 local x,y,z forces =   -2.4684E+05   -1.9985E+04    0.0000E+00  setid=       0
 node=  6328 local x,y,z forces =   -3.4436E+05    2.4041E+04    0.0000E+00  setid=       0
 node=  6329 local x,y,z forces =   -2.3094E+05    6.8101E+04    0.0000E+00  setid=       0
 node=  6330 local x,y,z forces =    6.8503E+05    4.5335E+04    0.0000E+00  setid=       0
 node=  6331 local x,y,z forces =    5.8144E+05   -3.1115E+04    0.0000E+00  setid=       0
 node=  6332 local x,y,z forces =   -2.4213E+05   -3.2748E+04    0.0000E+00  setid=       0
 node=  6333 local x,y,z forces =   -3.3754E+05    3.2198E+04    0.0000E+00  setid=       0
 node=  6334 local x,y,z forces =   -2.2585E+05    9.7364E+04    0.0000E+00  setid=       0
 node=  6335 local x,y,z forces =    6.7462E+05    6.5366E+04    0.0000E+00  setid=       0
 node=  6336 local x,y,z forces =    5.6878E+05   -4.5443E+04    0.0000E+00  setid=       0
 node=  6337 local x,y,z forces =   -2.3766E+05   -4.9588E+04    0.0000E+00  setid=       0
 node=  6338 local x,y,z forces =   -3.3124E+05    3.9800E+04    0.0000E+00  setid=       0
 node=  6339 local x,y,z forces =   -2.2143E+05    1.2961E+05    0.0000E+00  setid=       0
 node=  6340 local x,y,z forces =    6.5880E+05    8.7921E+04    0.0000E+00  setid=       0
 node=  6341 local x,y,z forces =    5.4879E+05   -6.7324E+04    0.0000E+00  setid=       0
 node=  6342 local x,y,z forces =   -2.3589E+05   -7.5890E+04    0.0000E+00  setid=       0
 node=  6343 local x,y,z forces =   -3.2743E+05    4.8016E+04    0.0000E+00  setid=       0
 node=  6344 local x,y,z forces =   -2.1742E+05    1.7291E+05    0.0000E+00  setid=       0
 node=  6345 local x,y,z forces =    6.3606E+05    1.1865E+05    0.0000E+00  setid=       0
 node=  6346 local x,y,z forces =    5.2003E+05   -9.3210E+04    0.0000E+00  setid=       0
 node=  6347 local x,y,z forces =   -2.3988E+05   -1.0785E+05    0.0000E+00  setid=       0
 node=  6348 local x,y,z forces =   -3.3195E+05    5.4398E+04    0.0000E+00  setid=       0
 node=  6349 local x,y,z forces =   -2.2025E+05    2.1825E+05    0.0000E+00  setid=       0
 node=  6350 local x,y,z forces =    6.0264E+05    1.5170E+05    0.0000E+00  setid=       0
 node=  6351 local x,y,z forces =    4.7483E+05   -1.3531E+05    0.0000E+00  setid=       0
 node=  6352 local x,y,z forces =   -2.5669E+05   -1.5911E+05    0.0000E+00  setid=       0
 node=  6353 local x,y,z forces =   -3.5120E+05    6.2823E+04    0.0000E+00  setid=       0
 node=  6354 local x,y,z forces =   -2.2942E+05    2.8751E+05    0.0000E+00  setid=       0
 node=  6355 local x,y,z forces =    5.5509E+05    2.0271E+05    0.0000E+00  setid=       0
 node=  6356 local x,y,z forces =    4.1230E+05   -1.7513E+05    0.0000E+00  setid=       0
 node=  6357 local x,y,z forces =   -2.9877E+05   -2.0973E+05    0.0000E+00  setid=       0
 node=  6358 local x,y,z forces =   -4.0631E+05    6.4374E+04    0.0000E+00  setid=       0
 node=  6359 local x,y,z forces =   -2.6815E+05    3.4329E+05    0.0000E+00  setid=       0
 node=  6360 local x,y,z forces =    4.8609E+05    2.4550E+05    0.0000E+00  setid=       0
 node=  6361 local x,y,z forces =    3.1194E+05   -2.5542E+05    0.0000E+00  setid=       0
 node=  6362 local x,y,z forces =   -3.8786E+05   -3.0333E+05    0.0000E+00  setid=       0
 node=  6363 local x,y,z forces =   -5.2359E+05    7.5890E+04    0.0000E+00  setid=       0
 node=  6364 local x,y,z forces =   -3.3675E+05    4.6054E+05    0.0000E+00  setid=       0
 node=  6365 local x,y,z forces =    3.8640E+05    3.3575E+05    0.0000E+00  setid=       0
 node=  6366 local x,y,z forces =    1.9169E+05   -2.5460E+05    0.0000E+00  setid=       0
 node=  6367 local x,y,z forces =   -6.2750E+05   -3.0615E+05    0.0000E+00  setid=       0
 node=  6368 local x,y,z forces =   -8.4506E+05    5.2971E+04    0.0000E+00  setid=       0
 node=  6369 local x,y,z forces =   -5.6404E+05    4.1958E+05    0.0000E+00  setid=       0
 node=  6370 local x,y,z forces =    2.6664E+05    3.2342E+05    0.0000E+00  setid=       0
 node=  6371 local x,y,z forces =    6.9545E+04   -3.0367E+05    0.0000E+00  setid=       0
 node=  6372 local x,y,z forces =   -4.1372E+05   -3.8766E+05    0.0000E+00  setid=       0
 node=  6373 local x,y,z forces =   -5.6048E+05    7.3892E+04    0.0000E+00  setid=       0
 node=  6374 local x,y,z forces =   -3.8993E+05    5.2111E+05    0.0000E+00  setid=       0
 node=  6375 local x,y,z forces =    1.0632E+05    3.7207E+05    0.0000E+00  setid=       0
             force resultants   =    9.9586E+02   -3.1432E-09   -2.5135E+07
