 400x600                                                                 
                         ls-dyna smp.123264 d           date 01/12/2018

{BEGIN LEGEND}
 Entity #        Title
        0     bottom                                                                
        0     top                                                                   
        0     middle                                                                
{END LEGEND}

 single point constraint forces

 output at time =   0.00000E+00
 node=     1 local x,y,z forces =    0.0000E+00    0.0000E+00    0.0000E+00  setid=       0
 node=     2 local x,y,z forces =    0.0000E+00    0.0000E+00    0.0000E+00  setid=       0
 node=     3 local x,y,z forces =    0.0000E+00    0.0000E+00    0.0000E+00  setid=       0
 node=     4 local x,y,z forces =    0.0000E+00    0.0000E+00    0.0000E+00  setid=       0
 node=     5 local x,y,z forces =    0.0000E+00    0.0000E+00    0.0000E+00  setid=       0
 node=     6 local x,y,z forces =    0.0000E+00    0.0000E+00    0.0000E+00  setid=       0
 node=     7 local x,y,z forces =    0.0000E+00    0.0000E+00    0.0000E+00  setid=       0
 node=     8 local x,y,z forces =    0.0000E+00    0.0000E+00    0.0000E+00  setid=       0
 node=     9 local x,y,z forces =    0.0000E+00    0.0000E+00    0.0000E+00  setid=       0
 node=    10 local x,y,z forces =    0.0000E+00    0.0000E+00    0.0000E+00  setid=       0
 node=    11 local x,y,z forces =    0.0000E+00    0.0000E+00    0.0000E+00  setid=       0
 node=    12 local x,y,z forces =    0.0000E+00    0.0000E+00    0.0000E+00  setid=       0
 node=    13 local x,y,z forces =    0.0000E+00    0.0000E+00    0.0000E+00  setid=       0
 node=    14 local x,y,z forces =    0.0000E+00    0.0000E+00    0.0000E+00  setid=       0
 node=    15 local x,y,z forces =    0.0000E+00    0.0000E+00    0.0000E+00  setid=       0
 node=    16 local x,y,z forces =    0.0000E+00    0.0000E+00    0.0000E+00  setid=       0
 node=    17 local x,y,z forces =    0.0000E+00    0.0000E+00    0.0000E+00  setid=       0
 node=    18 local x,y,z forces =    0.0000E+00    0.0000E+00    0.0000E+00  setid=       0
 node=    19 local x,y,z forces =    0.0000E+00    0.0000E+00    0.0000E+00  setid=       0
 node=    20 local x,y,z forces =    0.0000E+00    0.0000E+00    0.0000E+00  setid=       0
 node=    21 local x,y,z forces =    0.0000E+00    0.0000E+00    0.0000E+00  setid=       0
 node=    22 local x,y,z forces =    0.0000E+00    0.0000E+00    0.0000E+00  setid=       0
 node=    23 local x,y,z forces =    0.0000E+00    0.0000E+00    0.0000E+00  setid=       0
 node=    24 local x,y,z forces =    0.0000E+00    0.0000E+00    0.0000E+00  setid=       0
 node=    25 local x,y,z forces =    0.0000E+00    0.0000E+00    0.0000E+00  setid=       0
 node=    26 local x,y,z forces =    0.0000E+00    0.0000E+00    0.0000E+00  setid=       0
 node=    27 local x,y,z forces =    0.0000E+00    0.0000E+00    0.0000E+00  setid=       0
 node=    28 local x,y,z forces =    0.0000E+00    0.0000E+00    0.0000E+00  setid=       0
 node=    29 local x,y,z forces =    0.0000E+00    0.0000E+00    0.0000E+00  setid=       0
 node=    30 local x,y,z forces =    0.0000E+00    0.0000E+00    0.0000E+00  setid=       0
 node=    31 local x,y,z forces =    0.0000E+00    0.0000E+00    0.0000E+00  setid=       0
 node=    32 local x,y,z forces =    0.0000E+00    0.0000E+00    0.0000E+00  setid=       0
 node=    33 local x,y,z forces =    0.0000E+00    0.0000E+00    0.0000E+00  setid=       0
 node=    34 local x,y,z forces =    0.0000E+00    0.0000E+00    0.0000E+00  setid=       0
 node=    35 local x,y,z forces =    0.0000E+00    0.0000E+00    0.0000E+00  setid=       0
 node=    36 local x,y,z forces =    0.0000E+00    0.0000E+00    0.0000E+00  setid=       0
 node=    37 local x,y,z forces =    0.0000E+00    0.0000E+00    0.0000E+00  setid=       0
 node=    38 local x,y,z forces =    0.0000E+00    0.0000E+00    0.0000E+00  setid=       0
 node=    39 local x,y,z forces =    0.0000E+00    0.0000E+00    0.0000E+00  setid=       0
 node=    40 local x,y,z forces =    0.0000E+00    0.0000E+00    0.0000E+00  setid=       0
 node=    41 local x,y,z forces =    0.0000E+00    0.0000E+00    0.0000E+00  setid=       0
 node=    42 local x,y,z forces =    0.0000E+00    0.0000E+00    0.0000E+00  setid=       0
 node=    43 local x,y,z forces =    0.0000E+00    0.0000E+00    0.0000E+00  setid=       0
 node=    44 local x,y,z forces =    0.0000E+00    0.0000E+00    0.0000E+00  setid=       0
 node=    45 local x,y,z forces =    0.0000E+00    0.0000E+00    0.0000E+00  setid=       0
 node=    46 local x,y,z forces =    0.0000E+00    0.0000E+00    0.0000E+00  setid=       0
 node=    47 local x,y,z forces =    0.0000E+00    0.0000E+00    0.0000E+00  setid=       0
 node=    48 local x,y,z forces =    0.0000E+00    0.0000E+00    0.0000E+00  setid=       0
 node=    49 local x,y,z forces =    0.0000E+00    0.0000E+00    0.0000E+00  setid=       0
 node=    50 local x,y,z forces =    0.0000E+00    0.0000E+00    0.0000E+00  setid=       0
 node=    51 local x,y,z forces =    0.0000E+00    0.0000E+00    0.0000E+00  setid=       0
 node=    52 local x,y,z forces =    0.0000E+00    0.0000E+00    0.0000E+00  setid=       0
 node=    53 local x,y,z forces =    0.0000E+00    0.0000E+00    0.0000E+00  setid=       0
 node=    54 local x,y,z forces =    0.0000E+00    0.0000E+00    0.0000E+00  setid=       0
 node=    55 local x,y,z forces =    0.0000E+00    0.0000E+00    0.0000E+00  setid=       0
 node=    56 local x,y,z forces =    0.0000E+00    0.0000E+00    0.0000E+00  setid=       0
 node=    57 local x,y,z forces =    0.0000E+00    0.0000E+00    0.0000E+00  setid=       0
 node=    58 local x,y,z forces =    0.0000E+00    0.0000E+00    0.0000E+00  setid=       0
 node=    59 local x,y,z forces =    0.0000E+00    0.0000E+00    0.0000E+00  setid=       0
 node=    60 local x,y,z forces =    0.0000E+00    0.0000E+00    0.0000E+00  setid=       0
 node=    61 local x,y,z forces =    0.0000E+00    0.0000E+00    0.0000E+00  setid=       0
 node=    62 local x,y,z forces =    0.0000E+00    0.0000E+00    0.0000E+00  setid=       0
 node=    63 local x,y,z forces =    0.0000E+00    0.0000E+00    0.0000E+00  setid=       0
 node=    64 local x,y,z forces =    0.0000E+00    0.0000E+00    0.0000E+00  setid=       0
 node=    65 local x,y,z forces =    0.0000E+00    0.0000E+00    0.0000E+00  setid=       0
 node=    66 local x,y,z forces =    0.0000E+00    0.0000E+00    0.0000E+00  setid=       0
 node=    67 local x,y,z forces =    0.0000E+00    0.0000E+00    0.0000E+00  setid=       0
 node=    68 local x,y,z forces =    0.0000E+00    0.0000E+00    0.0000E+00  setid=       0
 node=    69 local x,y,z forces =    0.0000E+00    0.0000E+00    0.0000E+00  setid=       0
 node=    70 local x,y,z forces =    0.0000E+00    0.0000E+00    0.0000E+00  setid=       0
 node=    71 local x,y,z forces =    0.0000E+00    0.0000E+00    0.0000E+00  setid=       0
 node=    72 local x,y,z forces =    0.0000E+00    0.0000E+00    0.0000E+00  setid=       0
 node=    73 local x,y,z forces =    0.0000E+00    0.0000E+00    0.0000E+00  setid=       0
 node=    74 local x,y,z forces =    0.0000E+00    0.0000E+00    0.0000E+00  setid=       0
 node=    75 local x,y,z forces =    0.0000E+00    0.0000E+00    0.0000E+00  setid=       0
 node=    76 local x,y,z forces =    0.0000E+00    0.0000E+00    0.0000E+00  setid=       0
 node=    77 local x,y,z forces =    0.0000E+00    0.0000E+00    0.0000E+00  setid=       0
 node=    78 local x,y,z forces =    0.0000E+00    0.0000E+00    0.0000E+00  setid=       0
 node=    79 local x,y,z forces =    0.0000E+00    0.0000E+00    0.0000E+00  setid=       0
 node=    80 local x,y,z forces =    0.0000E+00    0.0000E+00    0.0000E+00  setid=       0
 node=    81 local x,y,z forces =    0.0000E+00    0.0000E+00    0.0000E+00  setid=       0
 node=    82 local x,y,z forces =    0.0000E+00    0.0000E+00    0.0000E+00  setid=       0
 node=    83 local x,y,z forces =    0.0000E+00    0.0000E+00    0.0000E+00  setid=       0
 node=    84 local x,y,z forces =    0.0000E+00    0.0000E+00    0.0000E+00  setid=       0
 node=    85 local x,y,z forces =    0.0000E+00    0.0000E+00    0.0000E+00  setid=       0
 node=    86 local x,y,z forces =    0.0000E+00    0.0000E+00    0.0000E+00  setid=       0
 node=    87 local x,y,z forces =    0.0000E+00    0.0000E+00    0.0000E+00  setid=       0
 node=    88 local x,y,z forces =    0.0000E+00    0.0000E+00    0.0000E+00  setid=       0
 node=    89 local x,y,z forces =    0.0000E+00    0.0000E+00    0.0000E+00  setid=       0
 node=    90 local x,y,z forces =    0.0000E+00    0.0000E+00    0.0000E+00  setid=       0
 node=    91 local x,y,z forces =    0.0000E+00    0.0000E+00    0.0000E+00  setid=       0
 node=    92 local x,y,z forces =    0.0000E+00    0.0000E+00    0.0000E+00  setid=       0
 node=    93 local x,y,z forces =    0.0000E+00    0.0000E+00    0.0000E+00  setid=       0
 node=    94 local x,y,z forces =    0.0000E+00    0.0000E+00    0.0000E+00  setid=       0
 node=    95 local x,y,z forces =    0.0000E+00    0.0000E+00    0.0000E+00  setid=       0
 node=    96 local x,y,z forces =    0.0000E+00    0.0000E+00    0.0000E+00  setid=       0
 node=    97 local x,y,z forces =    0.0000E+00    0.0000E+00    0.0000E+00  setid=       0
 node=    98 local x,y,z forces =    0.0000E+00    0.0000E+00    0.0000E+00  setid=       0
 node=    99 local x,y,z forces =    0.0000E+00    0.0000E+00    0.0000E+00  setid=       0
 node=   100 local x,y,z forces =    0.0000E+00    0.0000E+00    0.0000E+00  setid=       0
 node=   101 local x,y,z forces =    0.0000E+00    0.0000E+00    0.0000E+00  setid=       0
 node=   102 local x,y,z forces =    0.0000E+00    0.0000E+00    0.0000E+00  setid=       0
 node=   103 local x,y,z forces =    0.0000E+00    0.0000E+00    0.0000E+00  setid=       0
 node=   104 local x,y,z forces =    0.0000E+00    0.0000E+00    0.0000E+00  setid=       0
 node=   105 local x,y,z forces =    0.0000E+00    0.0000E+00    0.0000E+00  setid=       0
 node=   106 local x,y,z forces =    0.0000E+00    0.0000E+00    0.0000E+00  setid=       0
 node=   107 local x,y,z forces =    0.0000E+00    0.0000E+00    0.0000E+00  setid=       0
 node=   108 local x,y,z forces =    0.0000E+00    0.0000E+00    0.0000E+00  setid=       0
 node=   109 local x,y,z forces =    0.0000E+00    0.0000E+00    0.0000E+00  setid=       0
 node=   110 local x,y,z forces =    0.0000E+00    0.0000E+00    0.0000E+00  setid=       0
 node=   111 local x,y,z forces =    0.0000E+00    0.0000E+00    0.0000E+00  setid=       0
 node=   112 local x,y,z forces =    0.0000E+00    0.0000E+00    0.0000E+00  setid=       0
 node=   113 local x,y,z forces =    0.0000E+00    0.0000E+00    0.0000E+00  setid=       0
 node=   114 local x,y,z forces =    0.0000E+00    0.0000E+00    0.0000E+00  setid=       0
 node=   115 local x,y,z forces =    0.0000E+00    0.0000E+00    0.0000E+00  setid=       0
 node=   116 local x,y,z forces =    0.0000E+00    0.0000E+00    0.0000E+00  setid=       0
 node=   117 local x,y,z forces =    0.0000E+00    0.0000E+00    0.0000E+00  setid=       0
 node=   118 local x,y,z forces =    0.0000E+00    0.0000E+00    0.0000E+00  setid=       0
 node=   119 local x,y,z forces =    0.0000E+00    0.0000E+00    0.0000E+00  setid=       0
 node=   120 local x,y,z forces =    0.0000E+00    0.0000E+00    0.0000E+00  setid=       0
 node=   121 local x,y,z forces =    0.0000E+00    0.0000E+00    0.0000E+00  setid=       0
 node=   122 local x,y,z forces =    0.0000E+00    0.0000E+00    0.0000E+00  setid=       0
 node=   123 local x,y,z forces =    0.0000E+00    0.0000E+00    0.0000E+00  setid=       0
 node=   124 local x,y,z forces =    0.0000E+00    0.0000E+00    0.0000E+00  setid=       0
 node=   125 local x,y,z forces =    0.0000E+00    0.0000E+00    0.0000E+00  setid=       0
 node=  6251 local x,y,z forces =    0.0000E+00    0.0000E+00    0.0000E+00  setid=       0
 node=  6252 local x,y,z forces =    0.0000E+00    0.0000E+00    0.0000E+00  setid=       0
 node=  6253 local x,y,z forces =    0.0000E+00    0.0000E+00    0.0000E+00  setid=       0
 node=  6254 local x,y,z forces =    0.0000E+00    0.0000E+00    0.0000E+00  setid=       0
 node=  6255 local x,y,z forces =    0.0000E+00    0.0000E+00    0.0000E+00  setid=       0
 node=  6256 local x,y,z forces =    0.0000E+00    0.0000E+00    0.0000E+00  setid=       0
 node=  6257 local x,y,z forces =    0.0000E+00    0.0000E+00    0.0000E+00  setid=       0
 node=  6258 local x,y,z forces =    0.0000E+00    0.0000E+00    0.0000E+00  setid=       0
 node=  6259 local x,y,z forces =    0.0000E+00    0.0000E+00    0.0000E+00  setid=       0
 node=  6260 local x,y,z forces =    0.0000E+00    0.0000E+00    0.0000E+00  setid=       0
 node=  6261 local x,y,z forces =    0.0000E+00    0.0000E+00    0.0000E+00  setid=       0
 node=  6262 local x,y,z forces =    0.0000E+00    0.0000E+00    0.0000E+00  setid=       0
 node=  6263 local x,y,z forces =    0.0000E+00    0.0000E+00    0.0000E+00  setid=       0
 node=  6264 local x,y,z forces =    0.0000E+00    0.0000E+00    0.0000E+00  setid=       0
 node=  6265 local x,y,z forces =    0.0000E+00    0.0000E+00    0.0000E+00  setid=       0
 node=  6266 local x,y,z forces =    0.0000E+00    0.0000E+00    0.0000E+00  setid=       0
 node=  6267 local x,y,z forces =    0.0000E+00    0.0000E+00    0.0000E+00  setid=       0
 node=  6268 local x,y,z forces =    0.0000E+00    0.0000E+00    0.0000E+00  setid=       0
 node=  6269 local x,y,z forces =    0.0000E+00    0.0000E+00    0.0000E+00  setid=       0
 node=  6270 local x,y,z forces =    0.0000E+00    0.0000E+00    0.0000E+00  setid=       0
 node=  6271 local x,y,z forces =    0.0000E+00    0.0000E+00    0.0000E+00  setid=       0
 node=  6272 local x,y,z forces =    0.0000E+00    0.0000E+00    0.0000E+00  setid=       0
 node=  6273 local x,y,z forces =    0.0000E+00    0.0000E+00    0.0000E+00  setid=       0
 node=  6274 local x,y,z forces =    0.0000E+00    0.0000E+00    0.0000E+00  setid=       0
 node=  6275 local x,y,z forces =    0.0000E+00    0.0000E+00    0.0000E+00  setid=       0
 node=  6276 local x,y,z forces =    0.0000E+00    0.0000E+00    0.0000E+00  setid=       0
 node=  6277 local x,y,z forces =    0.0000E+00    0.0000E+00    0.0000E+00  setid=       0
 node=  6278 local x,y,z forces =    0.0000E+00    0.0000E+00    0.0000E+00  setid=       0
 node=  6279 local x,y,z forces =    0.0000E+00    0.0000E+00    0.0000E+00  setid=       0
 node=  6280 local x,y,z forces =    0.0000E+00    0.0000E+00    0.0000E+00  setid=       0
 node=  6281 local x,y,z forces =    0.0000E+00    0.0000E+00    0.0000E+00  setid=       0
 node=  6282 local x,y,z forces =    0.0000E+00    0.0000E+00    0.0000E+00  setid=       0
 node=  6283 local x,y,z forces =    0.0000E+00    0.0000E+00    0.0000E+00  setid=       0
 node=  6284 local x,y,z forces =    0.0000E+00    0.0000E+00    0.0000E+00  setid=       0
 node=  6285 local x,y,z forces =    0.0000E+00    0.0000E+00    0.0000E+00  setid=       0
 node=  6286 local x,y,z forces =    0.0000E+00    0.0000E+00    0.0000E+00  setid=       0
 node=  6287 local x,y,z forces =    0.0000E+00    0.0000E+00    0.0000E+00  setid=       0
 node=  6288 local x,y,z forces =    0.0000E+00    0.0000E+00    0.0000E+00  setid=       0
 node=  6289 local x,y,z forces =    0.0000E+00    0.0000E+00    0.0000E+00  setid=       0
 node=  6290 local x,y,z forces =    0.0000E+00    0.0000E+00    0.0000E+00  setid=       0
 node=  6291 local x,y,z forces =    0.0000E+00    0.0000E+00    0.0000E+00  setid=       0
 node=  6292 local x,y,z forces =    0.0000E+00    0.0000E+00    0.0000E+00  setid=       0
 node=  6293 local x,y,z forces =    0.0000E+00    0.0000E+00    0.0000E+00  setid=       0
 node=  6294 local x,y,z forces =    0.0000E+00    0.0000E+00    0.0000E+00  setid=       0
 node=  6295 local x,y,z forces =    0.0000E+00    0.0000E+00    0.0000E+00  setid=       0
 node=  6296 local x,y,z forces =    0.0000E+00    0.0000E+00    0.0000E+00  setid=       0
 node=  6297 local x,y,z forces =    0.0000E+00    0.0000E+00    0.0000E+00  setid=       0
 node=  6298 local x,y,z forces =    0.0000E+00    0.0000E+00    0.0000E+00  setid=       0
 node=  6299 local x,y,z forces =    0.0000E+00    0.0000E+00    0.0000E+00  setid=       0
 node=  6300 local x,y,z forces =    0.0000E+00    0.0000E+00    0.0000E+00  setid=       0
 node=  6301 local x,y,z forces =    0.0000E+00    0.0000E+00    0.0000E+00  setid=       0
 node=  6302 local x,y,z forces =    0.0000E+00    0.0000E+00    0.0000E+00  setid=       0
 node=  6303 local x,y,z forces =    0.0000E+00    0.0000E+00    0.0000E+00  setid=       0
 node=  6304 local x,y,z forces =    0.0000E+00    0.0000E+00    0.0000E+00  setid=       0
 node=  6305 local x,y,z forces =    0.0000E+00    0.0000E+00    0.0000E+00  setid=       0
 node=  6306 local x,y,z forces =    0.0000E+00    0.0000E+00    0.0000E+00  setid=       0
 node=  6307 local x,y,z forces =    0.0000E+00    0.0000E+00    0.0000E+00  setid=       0
 node=  6308 local x,y,z forces =    0.0000E+00    0.0000E+00    0.0000E+00  setid=       0
 node=  6309 local x,y,z forces =    0.0000E+00    0.0000E+00    0.0000E+00  setid=       0
 node=  6310 local x,y,z forces =    0.0000E+00    0.0000E+00    0.0000E+00  setid=       0
 node=  6311 local x,y,z forces =    0.0000E+00    0.0000E+00    0.0000E+00  setid=       0
 node=  6312 local x,y,z forces =    0.0000E+00    0.0000E+00    0.0000E+00  setid=       0
 node=  6313 local x,y,z forces =    0.0000E+00    0.0000E+00    0.0000E+00  setid=       0
 node=  6314 local x,y,z forces =    0.0000E+00    0.0000E+00    0.0000E+00  setid=       0
 node=  6315 local x,y,z forces =    0.0000E+00    0.0000E+00    0.0000E+00  setid=       0
 node=  6316 local x,y,z forces =    0.0000E+00    0.0000E+00    0.0000E+00  setid=       0
 node=  6317 local x,y,z forces =    0.0000E+00    0.0000E+00    0.0000E+00  setid=       0
 node=  6318 local x,y,z forces =    0.0000E+00    0.0000E+00    0.0000E+00  setid=       0
 node=  6319 local x,y,z forces =    0.0000E+00    0.0000E+00    0.0000E+00  setid=       0
 node=  6320 local x,y,z forces =    0.0000E+00    0.0000E+00    0.0000E+00  setid=       0
 node=  6321 local x,y,z forces =    0.0000E+00    0.0000E+00    0.0000E+00  setid=       0
 node=  6322 local x,y,z forces =    0.0000E+00    0.0000E+00    0.0000E+00  setid=       0
 node=  6323 local x,y,z forces =    0.0000E+00    0.0000E+00    0.0000E+00  setid=       0
 node=  6324 local x,y,z forces =    0.0000E+00    0.0000E+00    0.0000E+00  setid=       0
 node=  6325 local x,y,z forces =    0.0000E+00    0.0000E+00    0.0000E+00  setid=       0
 node=  6326 local x,y,z forces =    0.0000E+00    0.0000E+00    0.0000E+00  setid=       0
 node=  6327 local x,y,z forces =    0.0000E+00    0.0000E+00    0.0000E+00  setid=       0
 node=  6328 local x,y,z forces =    0.0000E+00    0.0000E+00    0.0000E+00  setid=       0
 node=  6329 local x,y,z forces =    0.0000E+00    0.0000E+00    0.0000E+00  setid=       0
 node=  6330 local x,y,z forces =    0.0000E+00    0.0000E+00    0.0000E+00  setid=       0
 node=  6331 local x,y,z forces =    0.0000E+00    0.0000E+00    0.0000E+00  setid=       0
 node=  6332 local x,y,z forces =    0.0000E+00    0.0000E+00    0.0000E+00  setid=       0
 node=  6333 local x,y,z forces =    0.0000E+00    0.0000E+00    0.0000E+00  setid=       0
 node=  6334 local x,y,z forces =    0.0000E+00    0.0000E+00    0.0000E+00  setid=       0
 node=  6335 local x,y,z forces =    0.0000E+00    0.0000E+00    0.0000E+00  setid=       0
 node=  6336 local x,y,z forces =    0.0000E+00    0.0000E+00    0.0000E+00  setid=       0
 node=  6337 local x,y,z forces =    0.0000E+00    0.0000E+00    0.0000E+00  setid=       0
 node=  6338 local x,y,z forces =    0.0000E+00    0.0000E+00    0.0000E+00  setid=       0
 node=  6339 local x,y,z forces =    0.0000E+00    0.0000E+00    0.0000E+00  setid=       0
 node=  6340 local x,y,z forces =    0.0000E+00    0.0000E+00    0.0000E+00  setid=       0
 node=  6341 local x,y,z forces =    0.0000E+00    0.0000E+00    0.0000E+00  setid=       0
 node=  6342 local x,y,z forces =    0.0000E+00    0.0000E+00    0.0000E+00  setid=       0
 node=  6343 local x,y,z forces =    0.0000E+00    0.0000E+00    0.0000E+00  setid=       0
 node=  6344 local x,y,z forces =    0.0000E+00    0.0000E+00    0.0000E+00  setid=       0
 node=  6345 local x,y,z forces =    0.0000E+00    0.0000E+00    0.0000E+00  setid=       0
 node=  6346 local x,y,z forces =    0.0000E+00    0.0000E+00    0.0000E+00  setid=       0
 node=  6347 local x,y,z forces =    0.0000E+00    0.0000E+00    0.0000E+00  setid=       0
 node=  6348 local x,y,z forces =    0.0000E+00    0.0000E+00    0.0000E+00  setid=       0
 node=  6349 local x,y,z forces =    0.0000E+00    0.0000E+00    0.0000E+00  setid=       0
 node=  6350 local x,y,z forces =    0.0000E+00    0.0000E+00    0.0000E+00  setid=       0
 node=  6351 local x,y,z forces =    0.0000E+00    0.0000E+00    0.0000E+00  setid=       0
 node=  6352 local x,y,z forces =    0.0000E+00    0.0000E+00    0.0000E+00  setid=       0
 node=  6353 local x,y,z forces =    0.0000E+00    0.0000E+00    0.0000E+00  setid=       0
 node=  6354 local x,y,z forces =    0.0000E+00    0.0000E+00    0.0000E+00  setid=       0
 node=  6355 local x,y,z forces =    0.0000E+00    0.0000E+00    0.0000E+00  setid=       0
 node=  6356 local x,y,z forces =    0.0000E+00    0.0000E+00    0.0000E+00  setid=       0
 node=  6357 local x,y,z forces =    0.0000E+00    0.0000E+00    0.0000E+00  setid=       0
 node=  6358 local x,y,z forces =    0.0000E+00    0.0000E+00    0.0000E+00  setid=       0
 node=  6359 local x,y,z forces =    0.0000E+00    0.0000E+00    0.0000E+00  setid=       0
 node=  6360 local x,y,z forces =    0.0000E+00    0.0000E+00    0.0000E+00  setid=       0
 node=  6361 local x,y,z forces =    0.0000E+00    0.0000E+00    0.0000E+00  setid=       0
 node=  6362 local x,y,z forces =    0.0000E+00    0.0000E+00    0.0000E+00  setid=       0
 node=  6363 local x,y,z forces =    0.0000E+00    0.0000E+00    0.0000E+00  setid=       0
 node=  6364 local x,y,z forces =    0.0000E+00    0.0000E+00    0.0000E+00  setid=       0
 node=  6365 local x,y,z forces =    0.0000E+00    0.0000E+00    0.0000E+00  setid=       0
 node=  6366 local x,y,z forces =    0.0000E+00    0.0000E+00    0.0000E+00  setid=       0
 node=  6367 local x,y,z forces =    0.0000E+00    0.0000E+00    0.0000E+00  setid=       0
 node=  6368 local x,y,z forces =    0.0000E+00    0.0000E+00    0.0000E+00  setid=       0
 node=  6369 local x,y,z forces =    0.0000E+00    0.0000E+00    0.0000E+00  setid=       0
 node=  6370 local x,y,z forces =    0.0000E+00    0.0000E+00    0.0000E+00  setid=       0
 node=  6371 local x,y,z forces =    0.0000E+00    0.0000E+00    0.0000E+00  setid=       0
 node=  6372 local x,y,z forces =    0.0000E+00    0.0000E+00    0.0000E+00  setid=       0
 node=  6373 local x,y,z forces =    0.0000E+00    0.0000E+00    0.0000E+00  setid=       0
 node=  6374 local x,y,z forces =    0.0000E+00    0.0000E+00    0.0000E+00  setid=       0
 node=  6375 local x,y,z forces =    0.0000E+00    0.0000E+00    0.0000E+00  setid=       0
             force resultants   =    0.0000E+00    0.0000E+00    0.0000E+00
 output at time =   5.00000E-04
 node=     1 local x,y,z forces =   -6.3684E+03   -7.1588E+03   -1.3987E+04  setid=       0
 node=     2 local x,y,z forces =   -9.1182E+02   -1.4005E+04   -2.5136E+04  setid=       0
 node=     3 local x,y,z forces =   -2.0137E+01   -1.3741E+04   -2.3801E+04  setid=       0
 node=     4 local x,y,z forces =    8.8054E+02   -1.4045E+04   -2.5201E+04  setid=       0
 node=     5 local x,y,z forces =    6.3837E+03   -7.1887E+03   -1.4033E+04  setid=       0
 node=     6 local x,y,z forces =   -1.1408E+04   -2.2221E+03   -2.1904E+04  setid=       0
 node=     7 local x,y,z forces =   -1.7631E+03   -4.4668E+03   -3.8121E+04  setid=       0
 node=     8 local x,y,z forces =   -3.1647E+01   -4.5021E+03   -3.5351E+04  setid=       0
 node=     9 local x,y,z forces =    1.7126E+03   -4.4847E+03   -3.8224E+04  setid=       0
 node=    10 local x,y,z forces =    1.1441E+04   -2.2371E+03   -2.1980E+04  setid=       0
 node=    11 local x,y,z forces =   -1.0070E+04   -3.0878E+03   -1.8404E+04  setid=       0
 node=    12 local x,y,z forces =   -1.7180E+03   -6.1713E+03   -3.1217E+04  setid=       0
 node=    13 local x,y,z forces =   -2.1481E+01   -6.1760E+03   -2.8427E+04  setid=       0
 node=    14 local x,y,z forces =    1.6805E+03   -6.1949E+03   -3.1316E+04  setid=       0
 node=    15 local x,y,z forces =    1.0110E+04   -3.1064E+03   -1.8484E+04  setid=       0
 node=    16 local x,y,z forces =   -9.7713E+03   -2.3788E+03   -1.8213E+04  setid=       0
 node=    17 local x,y,z forces =   -1.6725E+03   -4.7486E+03   -3.0884E+04  setid=       0
 node=    18 local x,y,z forces =   -1.7742E+01   -4.7441E+03   -2.8095E+04  setid=       0
 node=    19 local x,y,z forces =    1.6385E+03   -4.7665E+03   -3.0998E+04  setid=       0
 node=    20 local x,y,z forces =    9.8190E+03   -2.3926E+03   -1.8309E+04  setid=       0
 node=    21 local x,y,z forces =   -9.5520E+03   -2.1163E+03   -1.7695E+04  setid=       0
 node=    22 local x,y,z forces =   -1.6403E+03   -4.2327E+03   -2.9862E+04  setid=       0
 node=    23 local x,y,z forces =   -1.6053E+01   -4.2352E+03   -2.7060E+04  setid=       0
 node=    24 local x,y,z forces =    1.6077E+03   -4.2473E+03   -2.9985E+04  setid=       0
 node=    25 local x,y,z forces =    9.6054E+03   -2.1276E+03   -1.7800E+04  setid=       0
 node=    26 local x,y,z forces =   -9.4485E+03   -1.7319E+03   -1.7599E+04  setid=       0
 node=    27 local x,y,z forces =   -1.6202E+03   -3.4641E+03   -2.9689E+04  setid=       0
 node=    28 local x,y,z forces =   -1.5451E+01   -3.4661E+03   -2.6888E+04  setid=       0
 node=    29 local x,y,z forces =    1.5875E+03   -3.4751E+03   -2.9821E+04  setid=       0
 node=    30 local x,y,z forces =    9.5061E+03   -1.7404E+03   -1.7712E+04  setid=       0
 node=    31 local x,y,z forces =   -9.3751E+03   -1.4598E+03   -1.7442E+04  setid=       0
 node=    32 local x,y,z forces =   -1.6069E+03   -2.9202E+03   -2.9386E+04  setid=       0
 node=    33 local x,y,z forces =   -1.5332E+01   -2.9232E+03   -2.6584E+04  setid=       0
 node=    34 local x,y,z forces =    1.5739E+03   -2.9287E+03   -2.9524E+04  setid=       0
 node=    35 local x,y,z forces =    9.4358E+03   -1.4663E+03   -1.7561E+04  setid=       0
 node=    36 local x,y,z forces =   -9.3331E+03   -1.1737E+03   -1.7396E+04  setid=       0
 node=    37 local x,y,z forces =   -1.5994E+03   -2.3476E+03   -2.9301E+04  setid=       0
 node=    38 local x,y,z forces =   -1.5461E+01   -2.3490E+03   -2.6501E+04  setid=       0
 node=    39 local x,y,z forces =    1.5657E+03   -2.3539E+03   -2.9444E+04  setid=       0
 node=    40 local x,y,z forces =    9.3961E+03   -1.1785E+03   -1.7519E+04  setid=       0
 node=    41 local x,y,z forces =   -9.3037E+03   -9.2635E+02   -1.7339E+04  setid=       0
 node=    42 local x,y,z forces =   -1.5943E+03   -1.8526E+03   -2.9190E+04  setid=       0
 node=    43 local x,y,z forces =   -1.5671E+01   -1.8538E+03   -2.6390E+04  setid=       0
 node=    44 local x,y,z forces =    1.5600E+03   -1.8573E+03   -2.9337E+04  setid=       0
 node=    45 local x,y,z forces =    9.3683E+03   -9.2988E+02   -1.7465E+04  setid=       0
 node=    46 local x,y,z forces =   -9.2860E+03   -6.8110E+02   -1.7318E+04  setid=       0
 node=    47 local x,y,z forces =   -1.5913E+03   -1.3620E+03   -2.9151E+04  setid=       0
 node=    48 local x,y,z forces =   -1.5891E+01   -1.3626E+03   -2.6351E+04  setid=       0
 node=    49 local x,y,z forces =    1.5565E+03   -1.3652E+03   -2.9300E+04  setid=       0
 node=    50 local x,y,z forces =    9.3517E+03   -6.8355E+02   -1.7446E+04  setid=       0
 node=    51 local x,y,z forces =   -9.2744E+03   -4.5089E+02   -1.7296E+04  setid=       0
 node=    52 local x,y,z forces =   -1.5894E+03   -9.0161E+02   -2.9109E+04  setid=       0
 node=    53 local x,y,z forces =   -1.6069E+01   -9.0200E+02   -2.6309E+04  setid=       0
 node=    54 local x,y,z forces =    1.5542E+03   -9.0366E+02   -2.9260E+04  setid=       0
 node=    55 local x,y,z forces =    9.3408E+03   -4.5244E+02   -1.7426E+04  setid=       0
 node=    56 local x,y,z forces =   -9.2684E+03   -2.2340E+02   -1.7289E+04  setid=       0
 node=    57 local x,y,z forces =   -1.5884E+03   -4.4669E+02   -2.9096E+04  setid=       0
 node=    58 local x,y,z forces =   -1.6185E+01   -4.4683E+02   -2.6296E+04  setid=       0
 node=    59 local x,y,z forces =    1.5530E+03   -4.4768E+02   -2.9248E+04  setid=       0
 node=    60 local x,y,z forces =    9.3353E+03   -2.2415E+02   -1.7420E+04  setid=       0
 node=    61 local x,y,z forces =   -9.2663E+03    2.0009E-11   -1.7285E+04  setid=       0
 node=    62 local x,y,z forces =   -1.5881E+03    3.0923E-11   -2.9087E+04  setid=       0
 node=    63 local x,y,z forces =   -1.6224E+01   -2.0009E-11   -2.6287E+04  setid=       0
 node=    64 local x,y,z forces =    1.5525E+03   -4.9113E-11   -2.9239E+04  setid=       0
 node=    65 local x,y,z forces =    9.3333E+03   -1.2733E-11   -1.7416E+04  setid=       0
 node=    66 local x,y,z forces =   -9.2684E+03    2.2340E+02   -1.7289E+04  setid=       0
 node=    67 local x,y,z forces =   -1.5884E+03    4.4669E+02   -2.9096E+04  setid=       0
 node=    68 local x,y,z forces =   -1.6185E+01    4.4683E+02   -2.6296E+04  setid=       0
 node=    69 local x,y,z forces =    1.5530E+03    4.4768E+02   -2.9248E+04  setid=       0
 node=    70 local x,y,z forces =    9.3353E+03    2.2415E+02   -1.7420E+04  setid=       0
 node=    71 local x,y,z forces =   -9.2744E+03    4.5089E+02   -1.7296E+04  setid=       0
 node=    72 local x,y,z forces =   -1.5894E+03    9.0161E+02   -2.9109E+04  setid=       0
 node=    73 local x,y,z forces =   -1.6069E+01    9.0200E+02   -2.6309E+04  setid=       0
 node=    74 local x,y,z forces =    1.5542E+03    9.0366E+02   -2.9260E+04  setid=       0
 node=    75 local x,y,z forces =    9.3408E+03    4.5244E+02   -1.7426E+04  setid=       0
 node=    76 local x,y,z forces =   -9.2860E+03    6.8110E+02   -1.7318E+04  setid=       0
 node=    77 local x,y,z forces =   -1.5913E+03    1.3620E+03   -2.9151E+04  setid=       0
 node=    78 local x,y,z forces =   -1.5891E+01    1.3626E+03   -2.6351E+04  setid=       0
 node=    79 local x,y,z forces =    1.5565E+03    1.3652E+03   -2.9300E+04  setid=       0
 node=    80 local x,y,z forces =    9.3517E+03    6.8355E+02   -1.7446E+04  setid=       0
 node=    81 local x,y,z forces =   -9.3037E+03    9.2635E+02   -1.7339E+04  setid=       0
 node=    82 local x,y,z forces =   -1.5943E+03    1.8526E+03   -2.9190E+04  setid=       0
 node=    83 local x,y,z forces =   -1.5671E+01    1.8538E+03   -2.6390E+04  setid=       0
 node=    84 local x,y,z forces =    1.5600E+03    1.8573E+03   -2.9337E+04  setid=       0
 node=    85 local x,y,z forces =    9.3683E+03    9.2988E+02   -1.7465E+04  setid=       0
 node=    86 local x,y,z forces =   -9.3331E+03    1.1737E+03   -1.7396E+04  setid=       0
 node=    87 local x,y,z forces =   -1.5994E+03    2.3476E+03   -2.9301E+04  setid=       0
 node=    88 local x,y,z forces =   -1.5461E+01    2.3490E+03   -2.6501E+04  setid=       0
 node=    89 local x,y,z forces =    1.5657E+03    2.3539E+03   -2.9444E+04  setid=       0
 node=    90 local x,y,z forces =    9.3961E+03    1.1785E+03   -1.7519E+04  setid=       0
 node=    91 local x,y,z forces =   -9.3751E+03    1.4598E+03   -1.7442E+04  setid=       0
 node=    92 local x,y,z forces =   -1.6069E+03    2.9202E+03   -2.9386E+04  setid=       0
 node=    93 local x,y,z forces =   -1.5332E+01    2.9232E+03   -2.6584E+04  setid=       0
 node=    94 local x,y,z forces =    1.5739E+03    2.9287E+03   -2.9524E+04  setid=       0
 node=    95 local x,y,z forces =    9.4358E+03    1.4663E+03   -1.7561E+04  setid=       0
 node=    96 local x,y,z forces =   -9.4485E+03    1.7319E+03   -1.7599E+04  setid=       0
 node=    97 local x,y,z forces =   -1.6202E+03    3.4641E+03   -2.9689E+04  setid=       0
 node=    98 local x,y,z forces =   -1.5451E+01    3.4661E+03   -2.6888E+04  setid=       0
 node=    99 local x,y,z forces =    1.5875E+03    3.4751E+03   -2.9821E+04  setid=       0
 node=   100 local x,y,z forces =    9.5061E+03    1.7404E+03   -1.7712E+04  setid=       0
 node=   101 local x,y,z forces =   -9.5520E+03    2.1163E+03   -1.7695E+04  setid=       0
 node=   102 local x,y,z forces =   -1.6403E+03    4.2327E+03   -2.9862E+04  setid=       0
 node=   103 local x,y,z forces =   -1.6053E+01    4.2352E+03   -2.7060E+04  setid=       0
 node=   104 local x,y,z forces =    1.6077E+03    4.2473E+03   -2.9985E+04  setid=       0
 node=   105 local x,y,z forces =    9.6054E+03    2.1276E+03   -1.7800E+04  setid=       0
 node=   106 local x,y,z forces =   -9.7713E+03    2.3788E+03   -1.8213E+04  setid=       0
 node=   107 local x,y,z forces =   -1.6725E+03    4.7486E+03   -3.0884E+04  setid=       0
 node=   108 local x,y,z forces =   -1.7742E+01    4.7441E+03   -2.8095E+04  setid=       0
 node=   109 local x,y,z forces =    1.6385E+03    4.7665E+03   -3.0998E+04  setid=       0
 node=   110 local x,y,z forces =    9.8190E+03    2.3926E+03   -1.8309E+04  setid=       0
 node=   111 local x,y,z forces =   -1.0070E+04    3.0878E+03   -1.8404E+04  setid=       0
 node=   112 local x,y,z forces =   -1.7180E+03    6.1713E+03   -3.1217E+04  setid=       0
 node=   113 local x,y,z forces =   -2.1481E+01    6.1760E+03   -2.8427E+04  setid=       0
 node=   114 local x,y,z forces =    1.6805E+03    6.1949E+03   -3.1316E+04  setid=       0
 node=   115 local x,y,z forces =    1.0110E+04    3.1064E+03   -1.8484E+04  setid=       0
 node=   116 local x,y,z forces =   -1.1408E+04    2.2221E+03   -2.1904E+04  setid=       0
 node=   117 local x,y,z forces =   -1.7631E+03    4.4668E+03   -3.8121E+04  setid=       0
 node=   118 local x,y,z forces =   -3.1647E+01    4.5021E+03   -3.5351E+04  setid=       0
 node=   119 local x,y,z forces =    1.7126E+03    4.4847E+03   -3.8224E+04  setid=       0
 node=   120 local x,y,z forces =    1.1441E+04    2.2371E+03   -2.1980E+04  setid=       0
 node=   121 local x,y,z forces =   -6.3684E+03    7.1588E+03   -1.3987E+04  setid=       0
 node=   122 local x,y,z forces =   -9.1182E+02    1.4005E+04   -2.5136E+04  setid=       0
 node=   123 local x,y,z forces =   -2.0137E+01    1.3741E+04   -2.3801E+04  setid=       0
 node=   124 local x,y,z forces =    8.8054E+02    1.4045E+04   -2.5201E+04  setid=       0
 node=   125 local x,y,z forces =    6.3837E+03    7.1887E+03   -1.4033E+04  setid=       0
 node=  6251 local x,y,z forces =   -6.3684E+03   -7.1588E+03    0.0000E+00  setid=       0
 node=  6252 local x,y,z forces =   -9.1182E+02   -1.4005E+04    0.0000E+00  setid=       0
 node=  6253 local x,y,z forces =   -2.0137E+01   -1.3741E+04    0.0000E+00  setid=       0
 node=  6254 local x,y,z forces =    8.8054E+02   -1.4045E+04    0.0000E+00  setid=       0
 node=  6255 local x,y,z forces =    6.3837E+03   -7.1887E+03    0.0000E+00  setid=       0
 node=  6256 local x,y,z forces =   -1.1408E+04   -2.2221E+03    0.0000E+00  setid=       0
 node=  6257 local x,y,z forces =   -1.7631E+03   -4.4668E+03    0.0000E+00  setid=       0
 node=  6258 local x,y,z forces =   -3.1647E+01   -4.5021E+03    0.0000E+00  setid=       0
 node=  6259 local x,y,z forces =    1.7126E+03   -4.4847E+03    0.0000E+00  setid=       0
 node=  6260 local x,y,z forces =    1.1441E+04   -2.2371E+03    0.0000E+00  setid=       0
 node=  6261 local x,y,z forces =   -1.0070E+04   -3.0878E+03    0.0000E+00  setid=       0
 node=  6262 local x,y,z forces =   -1.7180E+03   -6.1713E+03    0.0000E+00  setid=       0
 node=  6263 local x,y,z forces =   -2.1481E+01   -6.1760E+03    0.0000E+00  setid=       0
 node=  6264 local x,y,z forces =    1.6805E+03   -6.1949E+03    0.0000E+00  setid=       0
 node=  6265 local x,y,z forces =    1.0110E+04   -3.1064E+03    0.0000E+00  setid=       0
 node=  6266 local x,y,z forces =   -9.7713E+03   -2.3788E+03    0.0000E+00  setid=       0
 node=  6267 local x,y,z forces =   -1.6725E+03   -4.7486E+03    0.0000E+00  setid=       0
 node=  6268 local x,y,z forces =   -1.7742E+01   -4.7441E+03    0.0000E+00  setid=       0
 node=  6269 local x,y,z forces =    1.6385E+03   -4.7665E+03    0.0000E+00  setid=       0
 node=  6270 local x,y,z forces =    9.8190E+03   -2.3926E+03    0.0000E+00  setid=       0
 node=  6271 local x,y,z forces =   -9.5520E+03   -2.1163E+03    0.0000E+00  setid=       0
 node=  6272 local x,y,z forces =   -1.6403E+03   -4.2327E+03    0.0000E+00  setid=       0
 node=  6273 local x,y,z forces =   -1.6053E+01   -4.2352E+03    0.0000E+00  setid=       0
 node=  6274 local x,y,z forces =    1.6077E+03   -4.2473E+03    0.0000E+00  setid=       0
 node=  6275 local x,y,z forces =    9.6054E+03   -2.1276E+03    0.0000E+00  setid=       0
 node=  6276 local x,y,z forces =   -9.4485E+03   -1.7319E+03    0.0000E+00  setid=       0
 node=  6277 local x,y,z forces =   -1.6202E+03   -3.4641E+03    0.0000E+00  setid=       0
 node=  6278 local x,y,z forces =   -1.5451E+01   -3.4661E+03    0.0000E+00  setid=       0
 node=  6279 local x,y,z forces =    1.5875E+03   -3.4751E+03    0.0000E+00  setid=       0
 node=  6280 local x,y,z forces =    9.5061E+03   -1.7404E+03    0.0000E+00  setid=       0
 node=  6281 local x,y,z forces =   -9.3751E+03   -1.4598E+03    0.0000E+00  setid=       0
 node=  6282 local x,y,z forces =   -1.6069E+03   -2.9202E+03    0.0000E+00  setid=       0
 node=  6283 local x,y,z forces =   -1.5332E+01   -2.9232E+03    0.0000E+00  setid=       0
 node=  6284 local x,y,z forces =    1.5739E+03   -2.9287E+03    0.0000E+00  setid=       0
 node=  6285 local x,y,z forces =    9.4358E+03   -1.4663E+03    0.0000E+00  setid=       0
 node=  6286 local x,y,z forces =   -9.3331E+03   -1.1737E+03    0.0000E+00  setid=       0
 node=  6287 local x,y,z forces =   -1.5994E+03   -2.3476E+03    0.0000E+00  setid=       0
 node=  6288 local x,y,z forces =   -1.5461E+01   -2.3490E+03    0.0000E+00  setid=       0
 node=  6289 local x,y,z forces =    1.5657E+03   -2.3539E+03    0.0000E+00  setid=       0
 node=  6290 local x,y,z forces =    9.3961E+03   -1.1785E+03    0.0000E+00  setid=       0
 node=  6291 local x,y,z forces =   -9.3037E+03   -9.2635E+02    0.0000E+00  setid=       0
 node=  6292 local x,y,z forces =   -1.5943E+03   -1.8526E+03    0.0000E+00  setid=       0
 node=  6293 local x,y,z forces =   -1.5671E+01   -1.8538E+03    0.0000E+00  setid=       0
 node=  6294 local x,y,z forces =    1.5600E+03   -1.8573E+03    0.0000E+00  setid=       0
 node=  6295 local x,y,z forces =    9.3683E+03   -9.2988E+02    0.0000E+00  setid=       0
 node=  6296 local x,y,z forces =   -9.2860E+03   -6.8110E+02    0.0000E+00  setid=       0
 node=  6297 local x,y,z forces =   -1.5913E+03   -1.3620E+03    0.0000E+00  setid=       0
 node=  6298 local x,y,z forces =   -1.5891E+01   -1.3626E+03    0.0000E+00  setid=       0
 node=  6299 local x,y,z forces =    1.5565E+03   -1.3652E+03    0.0000E+00  setid=       0
 node=  6300 local x,y,z forces =    9.3517E+03   -6.8355E+02    0.0000E+00  setid=       0
 node=  6301 local x,y,z forces =   -9.2744E+03   -4.5089E+02    0.0000E+00  setid=       0
 node=  6302 local x,y,z forces =   -1.5894E+03   -9.0161E+02    0.0000E+00  setid=       0
 node=  6303 local x,y,z forces =   -1.6069E+01   -9.0200E+02    0.0000E+00  setid=       0
 node=  6304 local x,y,z forces =    1.5542E+03   -9.0366E+02    0.0000E+00  setid=       0
 node=  6305 local x,y,z forces =    9.3408E+03   -4.5244E+02    0.0000E+00  setid=       0
 node=  6306 local x,y,z forces =   -9.2684E+03   -2.2340E+02    0.0000E+00  setid=       0
 node=  6307 local x,y,z forces =   -1.5884E+03   -4.4669E+02    0.0000E+00  setid=       0
 node=  6308 local x,y,z forces =   -1.6185E+01   -4.4683E+02    0.0000E+00  setid=       0
 node=  6309 local x,y,z forces =    1.5530E+03   -4.4768E+02    0.0000E+00  setid=       0
 node=  6310 local x,y,z forces =    9.3352E+03   -2.2415E+02    0.0000E+00  setid=       0
 node=  6311 local x,y,z forces =   -9.2663E+03   -7.4579E-11    0.0000E+00  setid=       0
 node=  6312 local x,y,z forces =   -1.5881E+03    1.4006E-10    0.0000E+00  setid=       0
 node=  6313 local x,y,z forces =   -1.6224E+01   -3.4561E-11    0.0000E+00  setid=       0
 node=  6314 local x,y,z forces =    1.5525E+03   -3.4379E-10    0.0000E+00  setid=       0
 node=  6315 local x,y,z forces =    9.3333E+03   -1.1460E-10    0.0000E+00  setid=       0
 node=  6316 local x,y,z forces =   -9.2684E+03    2.2340E+02    0.0000E+00  setid=       0
 node=  6317 local x,y,z forces =   -1.5884E+03    4.4669E+02    0.0000E+00  setid=       0
 node=  6318 local x,y,z forces =   -1.6185E+01    4.4683E+02    0.0000E+00  setid=       0
 node=  6319 local x,y,z forces =    1.5530E+03    4.4768E+02    0.0000E+00  setid=       0
 node=  6320 local x,y,z forces =    9.3352E+03    2.2415E+02    0.0000E+00  setid=       0
 node=  6321 local x,y,z forces =   -9.2744E+03    4.5089E+02    0.0000E+00  setid=       0
 node=  6322 local x,y,z forces =   -1.5894E+03    9.0161E+02    0.0000E+00  setid=       0
 node=  6323 local x,y,z forces =   -1.6069E+01    9.0200E+02    0.0000E+00  setid=       0
 node=  6324 local x,y,z forces =    1.5542E+03    9.0366E+02    0.0000E+00  setid=       0
 node=  6325 local x,y,z forces =    9.3408E+03    4.5244E+02    0.0000E+00  setid=       0
 node=  6326 local x,y,z forces =   -9.2860E+03    6.8110E+02    0.0000E+00  setid=       0
 node=  6327 local x,y,z forces =   -1.5913E+03    1.3620E+03    0.0000E+00  setid=       0
 node=  6328 local x,y,z forces =   -1.5891E+01    1.3626E+03    0.0000E+00  setid=       0
 node=  6329 local x,y,z forces =    1.5565E+03    1.3652E+03    0.0000E+00  setid=       0
 node=  6330 local x,y,z forces =    9.3517E+03    6.8355E+02    0.0000E+00  setid=       0
 node=  6331 local x,y,z forces =   -9.3037E+03    9.2635E+02    0.0000E+00  setid=       0
 node=  6332 local x,y,z forces =   -1.5943E+03    1.8526E+03    0.0000E+00  setid=       0
 node=  6333 local x,y,z forces =   -1.5671E+01    1.8538E+03    0.0000E+00  setid=       0
 node=  6334 local x,y,z forces =    1.5600E+03    1.8573E+03    0.0000E+00  setid=       0
 node=  6335 local x,y,z forces =    9.3683E+03    9.2988E+02    0.0000E+00  setid=       0
 node=  6336 local x,y,z forces =   -9.3331E+03    1.1737E+03    0.0000E+00  setid=       0
 node=  6337 local x,y,z forces =   -1.5994E+03    2.3476E+03    0.0000E+00  setid=       0
 node=  6338 local x,y,z forces =   -1.5461E+01    2.3490E+03    0.0000E+00  setid=       0
 node=  6339 local x,y,z forces =    1.5657E+03    2.3539E+03    0.0000E+00  setid=       0
 node=  6340 local x,y,z forces =    9.3961E+03    1.1785E+03    0.0000E+00  setid=       0
 node=  6341 local x,y,z forces =   -9.3751E+03    1.4598E+03    0.0000E+00  setid=       0
 node=  6342 local x,y,z forces =   -1.6069E+03    2.9202E+03    0.0000E+00  setid=       0
 node=  6343 local x,y,z forces =   -1.5332E+01    2.9232E+03    0.0000E+00  setid=       0
 node=  6344 local x,y,z forces =    1.5739E+03    2.9287E+03    0.0000E+00  setid=       0
 node=  6345 local x,y,z forces =    9.4358E+03    1.4663E+03    0.0000E+00  setid=       0
 node=  6346 local x,y,z forces =   -9.4485E+03    1.7319E+03    0.0000E+00  setid=       0
 node=  6347 local x,y,z forces =   -1.6202E+03    3.4641E+03    0.0000E+00  setid=       0
 node=  6348 local x,y,z forces =   -1.5451E+01    3.4661E+03    0.0000E+00  setid=       0
 node=  6349 local x,y,z forces =    1.5875E+03    3.4751E+03    0.0000E+00  setid=       0
 node=  6350 local x,y,z forces =    9.5061E+03    1.7404E+03    0.0000E+00  setid=       0
 node=  6351 local x,y,z forces =   -9.5520E+03    2.1163E+03    0.0000E+00  setid=       0
 node=  6352 local x,y,z forces =   -1.6403E+03    4.2327E+03    0.0000E+00  setid=       0
 node=  6353 local x,y,z forces =   -1.6053E+01    4.2352E+03    0.0000E+00  setid=       0
 node=  6354 local x,y,z forces =    1.6077E+03    4.2473E+03    0.0000E+00  setid=       0
 node=  6355 local x,y,z forces =    9.6054E+03    2.1276E+03    0.0000E+00  setid=       0
 node=  6356 local x,y,z forces =   -9.7713E+03    2.3788E+03    0.0000E+00  setid=       0
 node=  6357 local x,y,z forces =   -1.6725E+03    4.7486E+03    0.0000E+00  setid=       0
 node=  6358 local x,y,z forces =   -1.7742E+01    4.7441E+03    0.0000E+00  setid=       0
 node=  6359 local x,y,z forces =    1.6385E+03    4.7665E+03    0.0000E+00  setid=       0
 node=  6360 local x,y,z forces =    9.8190E+03    2.3926E+03    0.0000E+00  setid=       0
 node=  6361 local x,y,z forces =   -1.0070E+04    3.0878E+03    0.0000E+00  setid=       0
 node=  6362 local x,y,z forces =   -1.7180E+03    6.1713E+03    0.0000E+00  setid=       0
 node=  6363 local x,y,z forces =   -2.1481E+01    6.1760E+03    0.0000E+00  setid=       0
 node=  6364 local x,y,z forces =    1.6805E+03    6.1949E+03    0.0000E+00  setid=       0
 node=  6365 local x,y,z forces =    1.0110E+04    3.1064E+03    0.0000E+00  setid=       0
 node=  6366 local x,y,z forces =   -1.1408E+04    2.2221E+03    0.0000E+00  setid=       0
 node=  6367 local x,y,z forces =   -1.7631E+03    4.4668E+03    0.0000E+00  setid=       0
 node=  6368 local x,y,z forces =   -3.1647E+01    4.5021E+03    0.0000E+00  setid=       0
 node=  6369 local x,y,z forces =    1.7126E+03    4.4847E+03    0.0000E+00  setid=       0
 node=  6370 local x,y,z forces =    1.1441E+04    2.2371E+03    0.0000E+00  setid=       0
 node=  6371 local x,y,z forces =   -6.3684E+03    7.1588E+03    0.0000E+00  setid=       0
 node=  6372 local x,y,z forces =   -9.1182E+02    1.4005E+04    0.0000E+00  setid=       0
 node=  6373 local x,y,z forces =   -2.0137E+01    1.3741E+04    0.0000E+00  setid=       0
 node=  6374 local x,y,z forces =    8.8054E+02    1.4045E+04    0.0000E+00  setid=       0
 node=  6375 local x,y,z forces =    6.3837E+03    7.1887E+03    0.0000E+00  setid=       0
             force resultants   =   -1.4173E+00    1.0139E-08   -3.0691E+06
 output at time =   1.00000E-03
 node=     1 local x,y,z forces =   -1.2728E+04   -1.4298E+04   -2.7958E+04  setid=       0
 node=     2 local x,y,z forces =   -1.8443E+03   -2.7984E+04   -5.0252E+04  setid=       0
 node=     3 local x,y,z forces =   -6.7611E+01   -2.7482E+04   -4.7622E+04  setid=       0
 node=     4 local x,y,z forces =    1.7402E+03   -2.8114E+04   -5.0464E+04  setid=       0
 node=     5 local x,y,z forces =    1.2778E+04   -1.4396E+04   -2.8107E+04  setid=       0
 node=     6 local x,y,z forces =   -2.2798E+04   -4.4324E+03   -4.3779E+04  setid=       0
 node=     7 local x,y,z forces =   -3.5595E+03   -8.9184E+03   -7.6202E+04  setid=       0
 node=     8 local x,y,z forces =   -1.0620E+02   -9.0010E+03   -7.0723E+04  setid=       0
 node=     9 local x,y,z forces =    3.3916E+03   -8.9782E+03   -7.6539E+04  setid=       0
 node=    10 local x,y,z forces =    2.2904E+04   -4.4824E+03   -4.4025E+04  setid=       0
 node=    11 local x,y,z forces =   -2.0116E+04   -6.1629E+03   -3.6770E+04  setid=       0
 node=    12 local x,y,z forces =   -3.4602E+03   -1.2327E+04   -6.2387E+04  setid=       0
 node=    13 local x,y,z forces =   -7.1849E+01   -1.2352E+04   -5.6867E+04  setid=       0
 node=    14 local x,y,z forces =    3.3363E+03   -1.2406E+04   -6.2713E+04  setid=       0
 node=    15 local x,y,z forces =    2.0246E+04   -6.2256E+03   -3.7031E+04  setid=       0
 node=    16 local x,y,z forces =   -1.9512E+04   -4.7479E+03   -3.6378E+04  setid=       0
 node=    17 local x,y,z forces =   -3.3668E+03   -9.4847E+03   -6.1712E+04  setid=       0
 node=    18 local x,y,z forces =   -5.9164E+01   -9.4881E+03   -5.6203E+04  setid=       0
 node=    19 local x,y,z forces =    3.2546E+03   -9.5456E+03   -6.2085E+04  setid=       0
 node=    20 local x,y,z forces =    1.9669E+04   -4.7948E+03   -3.6689E+04  setid=       0
 node=    21 local x,y,z forces =   -1.9069E+04   -4.2250E+03   -3.5334E+04  setid=       0
 node=    22 local x,y,z forces =   -3.3014E+03   -8.4555E+03   -5.9659E+04  setid=       0
 node=    23 local x,y,z forces =   -5.3363E+01   -8.4709E+03   -5.4131E+04  setid=       0
 node=    24 local x,y,z forces =    3.1938E+03   -8.5054E+03   -6.0064E+04  setid=       0
 node=    25 local x,y,z forces =    1.9245E+04   -4.2633E+03   -3.5678E+04  setid=       0
 node=    26 local x,y,z forces =   -1.8859E+04   -3.4580E+03   -3.5136E+04  setid=       0
 node=    27 local x,y,z forces =   -3.2611E+03   -6.9205E+03   -5.9307E+04  setid=       0
 node=    28 local x,y,z forces =   -5.1258E+01   -6.9326E+03   -5.3787E+04  setid=       0
 node=    29 local x,y,z forces =    3.1534E+03   -6.9584E+03   -5.9742E+04  setid=       0
 node=    30 local x,y,z forces =    1.9050E+04   -3.4869E+03   -3.5508E+04  setid=       0
 node=    31 local x,y,z forces =   -1.8710E+04   -2.9152E+03   -3.4818E+04  setid=       0
 node=    32 local x,y,z forces =   -3.2349E+03   -5.8346E+03   -5.8696E+04  setid=       0
 node=    33 local x,y,z forces =   -5.0797E+01   -5.8469E+03   -5.3179E+04  setid=       0
 node=    34 local x,y,z forces =    3.1258E+03   -5.8640E+03   -5.9152E+04  setid=       0
 node=    35 local x,y,z forces =    1.8911E+04   -2.9375E+03   -3.5210E+04  setid=       0
 node=    36 local x,y,z forces =   -1.8624E+04   -2.3442E+03   -3.4722E+04  setid=       0
 node=    37 local x,y,z forces =   -3.2201E+03   -4.6908E+03   -5.8522E+04  setid=       0
 node=    38 local x,y,z forces =   -5.1194E+01   -4.6984E+03   -5.3012E+04  setid=       0
 node=    39 local x,y,z forces =    3.1090E+03   -4.7127E+03   -5.8996E+04  setid=       0
 node=    40 local x,y,z forces =    1.8834E+04   -2.3607E+03   -3.5129E+04  setid=       0
 node=    41 local x,y,z forces =   -1.8564E+04   -1.8503E+03   -3.4604E+04  setid=       0
 node=    42 local x,y,z forces =   -3.2105E+03   -3.7021E+03   -5.8298E+04  setid=       0
 node=    43 local x,y,z forces =   -5.1878E+01   -3.7079E+03   -5.2790E+04  setid=       0
 node=    44 local x,y,z forces =    3.0973E+03   -3.7182E+03   -5.8784E+04  setid=       0
 node=    45 local x,y,z forces =    1.8779E+04   -1.8625E+03   -3.5023E+04  setid=       0
 node=    46 local x,y,z forces =   -1.8528E+04   -1.3605E+03   -3.4560E+04  setid=       0
 node=    47 local x,y,z forces =   -3.2048E+03   -2.7218E+03   -5.8217E+04  setid=       0
 node=    48 local x,y,z forces =   -5.2604E+01   -2.7254E+03   -5.2712E+04  setid=       0
 node=    49 local x,y,z forces =    3.0899E+03   -2.7330E+03   -5.8712E+04  setid=       0
 node=    50 local x,y,z forces =    1.8747E+04   -1.3690E+03   -3.4987E+04  setid=       0
 node=    51 local x,y,z forces =   -1.8504E+04   -9.0074E+02   -3.4517E+04  setid=       0
 node=    52 local x,y,z forces =   -3.2013E+03   -1.8019E+03   -5.8132E+04  setid=       0
 node=    53 local x,y,z forces =   -5.3197E+01   -1.8041E+03   -5.2628E+04  setid=       0
 node=    54 local x,y,z forces =    3.0850E+03   -1.8090E+03   -5.8633E+04  setid=       0
 node=    55 local x,y,z forces =    1.8726E+04   -9.0609E+02   -3.4949E+04  setid=       0
 node=    56 local x,y,z forces =   -1.8492E+04   -4.4629E+02   -3.4502E+04  setid=       0
 node=    57 local x,y,z forces =   -3.1995E+03   -8.9272E+02   -5.8105E+04  setid=       0
 node=    58 local x,y,z forces =   -5.3584E+01   -8.9373E+02   -5.2602E+04  setid=       0
 node=    59 local x,y,z forces =    3.0823E+03   -8.9615E+02   -5.8610E+04  setid=       0
 node=    60 local x,y,z forces =    1.8715E+04   -4.4888E+02   -3.4938E+04  setid=       0
 node=    61 local x,y,z forces =   -1.8488E+04    8.0036E-11   -3.4492E+04  setid=       0
 node=    62 local x,y,z forces =   -3.1989E+03    9.8225E-11   -5.8086E+04  setid=       0
 node=    63 local x,y,z forces =   -5.3715E+01   -3.6380E-12   -5.2583E+04  setid=       0
 node=    64 local x,y,z forces =    3.0815E+03   -1.0186E-10   -5.8592E+04  setid=       0
 node=    65 local x,y,z forces =    1.8711E+04   -7.6398E-11   -3.4929E+04  setid=       0
 node=    66 local x,y,z forces =   -1.8492E+04    4.4629E+02   -3.4502E+04  setid=       0
 node=    67 local x,y,z forces =   -3.1995E+03    8.9272E+02   -5.8105E+04  setid=       0
 node=    68 local x,y,z forces =   -5.3584E+01    8.9373E+02   -5.2602E+04  setid=       0
 node=    69 local x,y,z forces =    3.0823E+03    8.9615E+02   -5.8610E+04  setid=       0
 node=    70 local x,y,z forces =    1.8715E+04    4.4888E+02   -3.4938E+04  setid=       0
 node=    71 local x,y,z forces =   -1.8504E+04    9.0074E+02   -3.4517E+04  setid=       0
 node=    72 local x,y,z forces =   -3.2013E+03    1.8019E+03   -5.8132E+04  setid=       0
 node=    73 local x,y,z forces =   -5.3197E+01    1.8041E+03   -5.2628E+04  setid=       0
 node=    74 local x,y,z forces =    3.0850E+03    1.8090E+03   -5.8633E+04  setid=       0
 node=    75 local x,y,z forces =    1.8726E+04    9.0609E+02   -3.4949E+04  setid=       0
 node=    76 local x,y,z forces =   -1.8528E+04    1.3605E+03   -3.4560E+04  setid=       0
 node=    77 local x,y,z forces =   -3.2048E+03    2.7218E+03   -5.8217E+04  setid=       0
 node=    78 local x,y,z forces =   -5.2604E+01    2.7254E+03   -5.2712E+04  setid=       0
 node=    79 local x,y,z forces =    3.0899E+03    2.7330E+03   -5.8712E+04  setid=       0
 node=    80 local x,y,z forces =    1.8747E+04    1.3690E+03   -3.4987E+04  setid=       0
 node=    81 local x,y,z forces =   -1.8564E+04    1.8503E+03   -3.4604E+04  setid=       0
 node=    82 local x,y,z forces =   -3.2105E+03    3.7021E+03   -5.8298E+04  setid=       0
 node=    83 local x,y,z forces =   -5.1878E+01    3.7079E+03   -5.2790E+04  setid=       0
 node=    84 local x,y,z forces =    3.0973E+03    3.7182E+03   -5.8784E+04  setid=       0
 node=    85 local x,y,z forces =    1.8779E+04    1.8625E+03   -3.5023E+04  setid=       0
 node=    86 local x,y,z forces =   -1.8624E+04    2.3442E+03   -3.4722E+04  setid=       0
 node=    87 local x,y,z forces =   -3.2201E+03    4.6908E+03   -5.8522E+04  setid=       0
 node=    88 local x,y,z forces =   -5.1194E+01    4.6984E+03   -5.3012E+04  setid=       0
 node=    89 local x,y,z forces =    3.1090E+03    4.7127E+03   -5.8996E+04  setid=       0
 node=    90 local x,y,z forces =    1.8834E+04    2.3607E+03   -3.5129E+04  setid=       0
 node=    91 local x,y,z forces =   -1.8710E+04    2.9152E+03   -3.4818E+04  setid=       0
 node=    92 local x,y,z forces =   -3.2349E+03    5.8346E+03   -5.8696E+04  setid=       0
 node=    93 local x,y,z forces =   -5.0797E+01    5.8469E+03   -5.3179E+04  setid=       0
 node=    94 local x,y,z forces =    3.1258E+03    5.8640E+03   -5.9152E+04  setid=       0
 node=    95 local x,y,z forces =    1.8911E+04    2.9375E+03   -3.5210E+04  setid=       0
 node=    96 local x,y,z forces =   -1.8859E+04    3.4580E+03   -3.5136E+04  setid=       0
 node=    97 local x,y,z forces =   -3.2611E+03    6.9205E+03   -5.9307E+04  setid=       0
 node=    98 local x,y,z forces =   -5.1258E+01    6.9326E+03   -5.3787E+04  setid=       0
 node=    99 local x,y,z forces =    3.1534E+03    6.9584E+03   -5.9742E+04  setid=       0
 node=   100 local x,y,z forces =    1.9050E+04    3.4869E+03   -3.5508E+04  setid=       0
 node=   101 local x,y,z forces =   -1.9069E+04    4.2250E+03   -3.5334E+04  setid=       0
 node=   102 local x,y,z forces =   -3.3014E+03    8.4555E+03   -5.9659E+04  setid=       0
 node=   103 local x,y,z forces =   -5.3363E+01    8.4709E+03   -5.4131E+04  setid=       0
 node=   104 local x,y,z forces =    3.1938E+03    8.5054E+03   -6.0064E+04  setid=       0
 node=   105 local x,y,z forces =    1.9245E+04    4.2633E+03   -3.5678E+04  setid=       0
 node=   106 local x,y,z forces =   -1.9512E+04    4.7479E+03   -3.6378E+04  setid=       0
 node=   107 local x,y,z forces =   -3.3668E+03    9.4847E+03   -6.1712E+04  setid=       0
 node=   108 local x,y,z forces =   -5.9164E+01    9.4881E+03   -5.6203E+04  setid=       0
 node=   109 local x,y,z forces =    3.2546E+03    9.5456E+03   -6.2085E+04  setid=       0
 node=   110 local x,y,z forces =    1.9669E+04    4.7948E+03   -3.6689E+04  setid=       0
 node=   111 local x,y,z forces =   -2.0116E+04    6.1629E+03   -3.6770E+04  setid=       0
 node=   112 local x,y,z forces =   -3.4602E+03    1.2327E+04   -6.2387E+04  setid=       0
 node=   113 local x,y,z forces =   -7.1849E+01    1.2352E+04   -5.6867E+04  setid=       0
 node=   114 local x,y,z forces =    3.3363E+03    1.2406E+04   -6.2713E+04  setid=       0
 node=   115 local x,y,z forces =    2.0246E+04    6.2256E+03   -3.7031E+04  setid=       0
 node=   116 local x,y,z forces =   -2.2798E+04    4.4324E+03   -4.3779E+04  setid=       0
 node=   117 local x,y,z forces =   -3.5595E+03    8.9184E+03   -7.6202E+04  setid=       0
 node=   118 local x,y,z forces =   -1.0620E+02    9.0010E+03   -7.0723E+04  setid=       0
 node=   119 local x,y,z forces =    3.3916E+03    8.9782E+03   -7.6539E+04  setid=       0
 node=   120 local x,y,z forces =    2.2904E+04    4.4824E+03   -4.4025E+04  setid=       0
 node=   121 local x,y,z forces =   -1.2728E+04    1.4298E+04   -2.7958E+04  setid=       0
 node=   122 local x,y,z forces =   -1.8443E+03    2.7984E+04   -5.0252E+04  setid=       0
 node=   123 local x,y,z forces =   -6.7611E+01    2.7482E+04   -4.7622E+04  setid=       0
 node=   124 local x,y,z forces =    1.7402E+03    2.8114E+04   -5.0464E+04  setid=       0
 node=   125 local x,y,z forces =    1.2778E+04    1.4396E+04   -2.8107E+04  setid=       0
 node=  6251 local x,y,z forces =   -1.2728E+04   -1.4298E+04    0.0000E+00  setid=       0
 node=  6252 local x,y,z forces =   -1.8443E+03   -2.7984E+04    0.0000E+00  setid=       0
 node=  6253 local x,y,z forces =   -6.7611E+01   -2.7481E+04    0.0000E+00  setid=       0
 node=  6254 local x,y,z forces =    1.7402E+03   -2.8114E+04    0.0000E+00  setid=       0
 node=  6255 local x,y,z forces =    1.2778E+04   -1.4396E+04    0.0000E+00  setid=       0
 node=  6256 local x,y,z forces =   -2.2798E+04   -4.4324E+03    0.0000E+00  setid=       0
 node=  6257 local x,y,z forces =   -3.5595E+03   -8.9184E+03    0.0000E+00  setid=       0
 node=  6258 local x,y,z forces =   -1.0620E+02   -9.0010E+03    0.0000E+00  setid=       0
 node=  6259 local x,y,z forces =    3.3916E+03   -8.9782E+03    0.0000E+00  setid=       0
 node=  6260 local x,y,z forces =    2.2904E+04   -4.4824E+03    0.0000E+00  setid=       0
 node=  6261 local x,y,z forces =   -2.0116E+04   -6.1629E+03    0.0000E+00  setid=       0
 node=  6262 local x,y,z forces =   -3.4602E+03   -1.2327E+04    0.0000E+00  setid=       0
 node=  6263 local x,y,z forces =   -7.1849E+01   -1.2352E+04    0.0000E+00  setid=       0
 node=  6264 local x,y,z forces =    3.3363E+03   -1.2406E+04    0.0000E+00  setid=       0
 node=  6265 local x,y,z forces =    2.0246E+04   -6.2256E+03    0.0000E+00  setid=       0
 node=  6266 local x,y,z forces =   -1.9512E+04   -4.7479E+03    0.0000E+00  setid=       0
 node=  6267 local x,y,z forces =   -3.3668E+03   -9.4847E+03    0.0000E+00  setid=       0
 node=  6268 local x,y,z forces =   -5.9164E+01   -9.4881E+03    0.0000E+00  setid=       0
 node=  6269 local x,y,z forces =    3.2546E+03   -9.5456E+03    0.0000E+00  setid=       0
 node=  6270 local x,y,z forces =    1.9669E+04   -4.7948E+03    0.0000E+00  setid=       0
 node=  6271 local x,y,z forces =   -1.9069E+04   -4.2250E+03    0.0000E+00  setid=       0
 node=  6272 local x,y,z forces =   -3.3014E+03   -8.4555E+03    0.0000E+00  setid=       0
 node=  6273 local x,y,z forces =   -5.3363E+01   -8.4709E+03    0.0000E+00  setid=       0
 node=  6274 local x,y,z forces =    3.1938E+03   -8.5054E+03    0.0000E+00  setid=       0
 node=  6275 local x,y,z forces =    1.9245E+04   -4.2633E+03    0.0000E+00  setid=       0
 node=  6276 local x,y,z forces =   -1.8859E+04   -3.4580E+03    0.0000E+00  setid=       0
 node=  6277 local x,y,z forces =   -3.2611E+03   -6.9205E+03    0.0000E+00  setid=       0
 node=  6278 local x,y,z forces =   -5.1258E+01   -6.9326E+03    0.0000E+00  setid=       0
 node=  6279 local x,y,z forces =    3.1534E+03   -6.9584E+03    0.0000E+00  setid=       0
 node=  6280 local x,y,z forces =    1.9050E+04   -3.4869E+03    0.0000E+00  setid=       0
 node=  6281 local x,y,z forces =   -1.8710E+04   -2.9152E+03    0.0000E+00  setid=       0
 node=  6282 local x,y,z forces =   -3.2349E+03   -5.8346E+03    0.0000E+00  setid=       0
 node=  6283 local x,y,z forces =   -5.0797E+01   -5.8469E+03    0.0000E+00  setid=       0
 node=  6284 local x,y,z forces =    3.1258E+03   -5.8640E+03    0.0000E+00  setid=       0
 node=  6285 local x,y,z forces =    1.8911E+04   -2.9375E+03    0.0000E+00  setid=       0
 node=  6286 local x,y,z forces =   -1.8624E+04   -2.3442E+03    0.0000E+00  setid=       0
 node=  6287 local x,y,z forces =   -3.2201E+03   -4.6908E+03    0.0000E+00  setid=       0
 node=  6288 local x,y,z forces =   -5.1194E+01   -4.6984E+03    0.0000E+00  setid=       0
 node=  6289 local x,y,z forces =    3.1090E+03   -4.7127E+03    0.0000E+00  setid=       0
 node=  6290 local x,y,z forces =    1.8833E+04   -2.3607E+03    0.0000E+00  setid=       0
 node=  6291 local x,y,z forces =   -1.8564E+04   -1.8503E+03    0.0000E+00  setid=       0
 node=  6292 local x,y,z forces =   -3.2105E+03   -3.7021E+03    0.0000E+00  setid=       0
 node=  6293 local x,y,z forces =   -5.1878E+01   -3.7079E+03    0.0000E+00  setid=       0
 node=  6294 local x,y,z forces =    3.0973E+03   -3.7182E+03    0.0000E+00  setid=       0
 node=  6295 local x,y,z forces =    1.8779E+04   -1.8625E+03    0.0000E+00  setid=       0
 node=  6296 local x,y,z forces =   -1.8528E+04   -1.3605E+03    0.0000E+00  setid=       0
 node=  6297 local x,y,z forces =   -3.2048E+03   -2.7218E+03    0.0000E+00  setid=       0
 node=  6298 local x,y,z forces =   -5.2604E+01   -2.7254E+03    0.0000E+00  setid=       0
 node=  6299 local x,y,z forces =    3.0899E+03   -2.7330E+03    0.0000E+00  setid=       0
 node=  6300 local x,y,z forces =    1.8747E+04   -1.3690E+03    0.0000E+00  setid=       0
 node=  6301 local x,y,z forces =   -1.8504E+04   -9.0074E+02    0.0000E+00  setid=       0
 node=  6302 local x,y,z forces =   -3.2013E+03   -1.8019E+03    0.0000E+00  setid=       0
 node=  6303 local x,y,z forces =   -5.3197E+01   -1.8041E+03    0.0000E+00  setid=       0
 node=  6304 local x,y,z forces =    3.0850E+03   -1.8090E+03    0.0000E+00  setid=       0
 node=  6305 local x,y,z forces =    1.8725E+04   -9.0609E+02    0.0000E+00  setid=       0
 node=  6306 local x,y,z forces =   -1.8492E+04   -4.4629E+02    0.0000E+00  setid=       0
 node=  6307 local x,y,z forces =   -3.1995E+03   -8.9272E+02    0.0000E+00  setid=       0
 node=  6308 local x,y,z forces =   -5.3584E+01   -8.9373E+02    0.0000E+00  setid=       0
 node=  6309 local x,y,z forces =    3.0823E+03   -8.9615E+02    0.0000E+00  setid=       0
 node=  6310 local x,y,z forces =    1.8715E+04   -4.4888E+02    0.0000E+00  setid=       0
 node=  6311 local x,y,z forces =   -1.8487E+04    5.5661E-10    0.0000E+00  setid=       0
 node=  6312 local x,y,z forces =   -3.1989E+03    9.0222E-10    0.0000E+00  setid=       0
 node=  6313 local x,y,z forces =   -5.3715E+01    2.9104E-11    0.0000E+00  setid=       0
 node=  6314 local x,y,z forces =    3.0815E+03   -5.8935E-10    0.0000E+00  setid=       0
 node=  6315 local x,y,z forces =    1.8711E+04   -3.1650E-10    0.0000E+00  setid=       0
 node=  6316 local x,y,z forces =   -1.8492E+04    4.4629E+02    0.0000E+00  setid=       0
 node=  6317 local x,y,z forces =   -3.1995E+03    8.9272E+02    0.0000E+00  setid=       0
 node=  6318 local x,y,z forces =   -5.3584E+01    8.9373E+02    0.0000E+00  setid=       0
 node=  6319 local x,y,z forces =    3.0823E+03    8.9615E+02    0.0000E+00  setid=       0
 node=  6320 local x,y,z forces =    1.8715E+04    4.4888E+02    0.0000E+00  setid=       0
 node=  6321 local x,y,z forces =   -1.8504E+04    9.0074E+02    0.0000E+00  setid=       0
 node=  6322 local x,y,z forces =   -3.2013E+03    1.8019E+03    0.0000E+00  setid=       0
 node=  6323 local x,y,z forces =   -5.3197E+01    1.8041E+03    0.0000E+00  setid=       0
 node=  6324 local x,y,z forces =    3.0850E+03    1.8090E+03    0.0000E+00  setid=       0
 node=  6325 local x,y,z forces =    1.8725E+04    9.0609E+02    0.0000E+00  setid=       0
 node=  6326 local x,y,z forces =   -1.8528E+04    1.3605E+03    0.0000E+00  setid=       0
 node=  6327 local x,y,z forces =   -3.2048E+03    2.7218E+03    0.0000E+00  setid=       0
 node=  6328 local x,y,z forces =   -5.2604E+01    2.7254E+03    0.0000E+00  setid=       0
 node=  6329 local x,y,z forces =    3.0899E+03    2.7330E+03    0.0000E+00  setid=       0
 node=  6330 local x,y,z forces =    1.8747E+04    1.3690E+03    0.0000E+00  setid=       0
 node=  6331 local x,y,z forces =   -1.8564E+04    1.8503E+03    0.0000E+00  setid=       0
 node=  6332 local x,y,z forces =   -3.2105E+03    3.7021E+03    0.0000E+00  setid=       0
 node=  6333 local x,y,z forces =   -5.1878E+01    3.7079E+03    0.0000E+00  setid=       0
 node=  6334 local x,y,z forces =    3.0973E+03    3.7182E+03    0.0000E+00  setid=       0
 node=  6335 local x,y,z forces =    1.8779E+04    1.8625E+03    0.0000E+00  setid=       0
 node=  6336 local x,y,z forces =   -1.8624E+04    2.3442E+03    0.0000E+00  setid=       0
 node=  6337 local x,y,z forces =   -3.2201E+03    4.6908E+03    0.0000E+00  setid=       0
 node=  6338 local x,y,z forces =   -5.1194E+01    4.6984E+03    0.0000E+00  setid=       0
 node=  6339 local x,y,z forces =    3.1090E+03    4.7127E+03    0.0000E+00  setid=       0
 node=  6340 local x,y,z forces =    1.8833E+04    2.3607E+03    0.0000E+00  setid=       0
 node=  6341 local x,y,z forces =   -1.8710E+04    2.9152E+03    0.0000E+00  setid=       0
 node=  6342 local x,y,z forces =   -3.2349E+03    5.8346E+03    0.0000E+00  setid=       0
 node=  6343 local x,y,z forces =   -5.0797E+01    5.8469E+03    0.0000E+00  setid=       0
 node=  6344 local x,y,z forces =    3.1258E+03    5.8640E+03    0.0000E+00  setid=       0
 node=  6345 local x,y,z forces =    1.8911E+04    2.9375E+03    0.0000E+00  setid=       0
 node=  6346 local x,y,z forces =   -1.8859E+04    3.4580E+03    0.0000E+00  setid=       0
 node=  6347 local x,y,z forces =   -3.2611E+03    6.9205E+03    0.0000E+00  setid=       0
 node=  6348 local x,y,z forces =   -5.1258E+01    6.9326E+03    0.0000E+00  setid=       0
 node=  6349 local x,y,z forces =    3.1534E+03    6.9584E+03    0.0000E+00  setid=       0
 node=  6350 local x,y,z forces =    1.9050E+04    3.4869E+03    0.0000E+00  setid=       0
 node=  6351 local x,y,z forces =   -1.9069E+04    4.2250E+03    0.0000E+00  setid=       0
 node=  6352 local x,y,z forces =   -3.3014E+03    8.4555E+03    0.0000E+00  setid=       0
 node=  6353 local x,y,z forces =   -5.3363E+01    8.4709E+03    0.0000E+00  setid=       0
 node=  6354 local x,y,z forces =    3.1938E+03    8.5054E+03    0.0000E+00  setid=       0
 node=  6355 local x,y,z forces =    1.9245E+04    4.2633E+03    0.0000E+00  setid=       0
 node=  6356 local x,y,z forces =   -1.9512E+04    4.7479E+03    0.0000E+00  setid=       0
 node=  6357 local x,y,z forces =   -3.3668E+03    9.4847E+03    0.0000E+00  setid=       0
 node=  6358 local x,y,z forces =   -5.9164E+01    9.4881E+03    0.0000E+00  setid=       0
 node=  6359 local x,y,z forces =    3.2546E+03    9.5456E+03    0.0000E+00  setid=       0
 node=  6360 local x,y,z forces =    1.9669E+04    4.7948E+03    0.0000E+00  setid=       0
 node=  6361 local x,y,z forces =   -2.0116E+04    6.1629E+03    0.0000E+00  setid=       0
 node=  6362 local x,y,z forces =   -3.4602E+03    1.2327E+04    0.0000E+00  setid=       0
 node=  6363 local x,y,z forces =   -7.1849E+01    1.2352E+04    0.0000E+00  setid=       0
 node=  6364 local x,y,z forces =    3.3363E+03    1.2406E+04    0.0000E+00  setid=       0
 node=  6365 local x,y,z forces =    2.0246E+04    6.2256E+03    0.0000E+00  setid=       0
 node=  6366 local x,y,z forces =   -2.2798E+04    4.4324E+03    0.0000E+00  setid=       0
 node=  6367 local x,y,z forces =   -3.5595E+03    8.9184E+03    0.0000E+00  setid=       0
 node=  6368 local x,y,z forces =   -1.0620E+02    9.0010E+03    0.0000E+00  setid=       0
 node=  6369 local x,y,z forces =    3.3916E+03    8.9782E+03    0.0000E+00  setid=       0
 node=  6370 local x,y,z forces =    2.2904E+04    4.4824E+03    0.0000E+00  setid=       0
 node=  6371 local x,y,z forces =   -1.2728E+04    1.4298E+04    0.0000E+00  setid=       0
 node=  6372 local x,y,z forces =   -1.8443E+03    2.7984E+04    0.0000E+00  setid=       0
 node=  6373 local x,y,z forces =   -6.7611E+01    2.7481E+04    0.0000E+00  setid=       0
 node=  6374 local x,y,z forces =    1.7402E+03    2.8114E+04    0.0000E+00  setid=       0
 node=  6375 local x,y,z forces =    1.2778E+04    1.4396E+04    0.0000E+00  setid=       0
             force resultants   =   -1.5875E+01   -2.9922E-09   -6.1399E+06
 output at time =   1.50000E-03
 node=     1 local x,y,z forces =   -4.1633E+03    2.9922E+03   -2.0669E+03  setid=       0
 node=     2 local x,y,z forces =   -2.0343E+04   -4.6807E+03   -1.2375E+04  setid=       0
 node=     3 local x,y,z forces =   -2.4387E+04   -2.6990E+04   -4.6661E+04  setid=       0
 node=     4 local x,y,z forces =   -1.6667E+04   -5.0333E+04   -8.6233E+04  setid=       0
 node=     5 local x,y,z forces =    2.0818E+04   -3.1148E+04   -5.2983E+04  setid=       0
 node=     6 local x,y,z forces =   -4.3744E+03    4.5021E+03   -1.2950E+03  setid=       0
 node=     7 local x,y,z forces =   -3.3282E+04    1.9624E+03   -1.6540E+04  setid=       0
 node=     8 local x,y,z forces =   -3.8276E+04   -8.7963E+03   -6.9258E+04  setid=       0
 node=     9 local x,y,z forces =   -2.6219E+04   -1.9522E+04   -1.3285E+05  setid=       0
 node=    10 local x,y,z forces =    4.0388E+04   -1.3326E+04   -8.4850E+04  setid=       0
 node=    11 local x,y,z forces =    2.6175E+03    5.2172E+03    8.3392E+03  setid=       0
 node=    12 local x,y,z forces =   -2.5225E+04    2.2775E+03   -4.9248E+03  setid=       0
 node=    13 local x,y,z forces =   -2.5775E+04   -1.2174E+04   -5.5638E+04  setid=       0
 node=    14 local x,y,z forces =   -1.8362E+04   -2.6681E+04   -1.1726E+05  setid=       0
 node=    15 local x,y,z forces =    4.2272E+04   -1.7429E+04   -8.0765E+04  setid=       0
 node=    16 local x,y,z forces =    8.0234E+03    3.8676E+03    1.7856E+04  setid=       0
 node=    17 local x,y,z forces =   -2.2962E+04    1.8129E+03    4.5098E+03  setid=       0
 node=    18 local x,y,z forces =   -2.1110E+04   -9.3619E+03   -5.5023E+04  setid=       0
 node=    19 local x,y,z forces =   -1.6386E+04   -2.0606E+04   -1.2543E+05  setid=       0
 node=    20 local x,y,z forces =    4.6562E+04   -1.3281E+04   -8.9704E+04  setid=       0
 node=    21 local x,y,z forces =    1.2026E+04    2.8520E+03    2.4907E+04  setid=       0
 node=    22 local x,y,z forces =   -2.2020E+04    8.5929E+02    1.2368E+04  setid=       0
 node=    23 local x,y,z forces =   -1.8942E+04   -8.3698E+03   -5.3014E+04  setid=       0
 node=    24 local x,y,z forces =   -1.5598E+04   -1.7629E+04   -1.2931E+05  setid=       0
 node=    25 local x,y,z forces =    4.9783E+04   -1.1234E+04   -9.4837E+04  setid=       0
 node=    26 local x,y,z forces =    1.4960E+04    1.9140E+03    3.0377E+04  setid=       0
 node=    27 local x,y,z forces =   -2.1951E+04    2.1039E+02    1.8301E+04  setid=       0
 node=    28 local x,y,z forces =   -1.8131E+04   -6.8573E+03   -5.2703E+04  setid=       0
 node=    29 local x,y,z forces =   -1.5649E+04   -1.3944E+04   -1.3462E+05  setid=       0
 node=    30 local x,y,z forces =    5.2361E+04   -8.7795E+03   -1.0004E+05  setid=       0
 node=    31 local x,y,z forces =    1.7109E+04    1.2492E+03    3.4429E+04  setid=       0
 node=    32 local x,y,z forces =   -2.2166E+04   -2.8222E+02    2.2921E+04  setid=       0
 node=    33 local x,y,z forces =   -1.7929E+04   -5.7881E+03   -5.2129E+04  setid=       0
 node=    34 local x,y,z forces =   -1.5933E+04   -1.1302E+04   -1.3809E+05  setid=       0
 node=    35 local x,y,z forces =    5.4269E+04   -7.0406E+03   -1.0355E+05  setid=       0
 node=    36 local x,y,z forces =    1.8676E+04    7.6210E+02    3.7462E+04  setid=       0
 node=    37 local x,y,z forces =   -2.2522E+04   -5.3147E+02    2.6367E+04  setid=       0
 node=    38 local x,y,z forces =   -1.8050E+04   -4.6545E+03   -5.1985E+04  setid=       0
 node=    39 local x,y,z forces =   -1.6335E+04   -8.7850E+03   -1.4125E+05  setid=       0
 node=    40 local x,y,z forces =    5.5703E+04   -5.4218E+03   -1.0647E+05  setid=       0
 node=    41 local x,y,z forces =    1.9804E+04    4.4160E+02    3.9668E+04  setid=       0
 node=    42 local x,y,z forces =   -2.2880E+04   -6.2348E+02    2.8946E+04  setid=       0
 node=    43 local x,y,z forces =   -1.8283E+04   -3.6752E+03   -5.1783E+04  setid=       0
 node=    44 local x,y,z forces =   -1.6721E+04   -6.7314E+03   -1.4342E+05  setid=       0
 node=    45 local x,y,z forces =    5.6744E+04   -4.1211E+03   -1.0850E+05  setid=       0
 node=    46 local x,y,z forces =    2.0595E+04    2.3498E+02    4.1238E+04  setid=       0
 node=    47 local x,y,z forces =   -2.3197E+04   -5.7328E+02    3.0781E+04  setid=       0
 node=    48 local x,y,z forces =   -1.8538E+04   -2.7024E+03   -5.1718E+04  setid=       0
 node=    49 local x,y,z forces =   -1.7056E+04   -4.8353E+03   -1.4513E+05  setid=       0
 node=    50 local x,y,z forces =    5.7485E+04   -2.9416E+03   -1.1002E+05  setid=       0
 node=    51 local x,y,z forces =    2.1116E+04    1.1363E+02    4.2279E+04  setid=       0
 node=    52 local x,y,z forces =   -2.3436E+04   -4.3343E+02    3.2021E+04  setid=       0
 node=    53 local x,y,z forces =   -1.8748E+04   -1.7894E+03   -5.1644E+04  setid=       0
 node=    54 local x,y,z forces =   -1.7305E+04   -3.1476E+03   -1.4623E+05  setid=       0
 node=    55 local x,y,z forces =    5.7976E+04   -1.9060E+03   -1.1100E+05  setid=       0
 node=    56 local x,y,z forces =    2.1413E+04    4.3882E+01    4.2876E+04  setid=       0
 node=    57 local x,y,z forces =   -2.3585E+04   -2.3078E+02    3.2729E+04  setid=       0
 node=    58 local x,y,z forces =   -1.8886E+04   -8.8660E+02   -5.1624E+04  setid=       0
 node=    59 local x,y,z forces =   -1.7460E+04   -1.5436E+03   -1.4690E+05  setid=       0
 node=    60 local x,y,z forces =    5.8257E+04   -9.3209E+02   -1.1159E+05  setid=       0
 node=    61 local x,y,z forces =    2.1509E+04    7.4215E-10    4.3069E+04  setid=       0
 node=    62 local x,y,z forces =   -2.3635E+04   -8.5811E-10    3.2963E+04  setid=       0
 node=    63 local x,y,z forces =   -1.8932E+04    4.6566E-10   -5.1607E+04  setid=       0
 node=    64 local x,y,z forces =   -1.7511E+04   -1.1642E-10   -1.4710E+05  setid=       0
 node=    65 local x,y,z forces =    5.8348E+04   -1.6298E-09   -1.1177E+05  setid=       0
 node=    66 local x,y,z forces =    2.1413E+04   -4.3882E+01    4.2876E+04  setid=       0
 node=    67 local x,y,z forces =   -2.3585E+04    2.3078E+02    3.2729E+04  setid=       0
 node=    68 local x,y,z forces =   -1.8886E+04    8.8660E+02   -5.1624E+04  setid=       0
 node=    69 local x,y,z forces =   -1.7460E+04    1.5436E+03   -1.4690E+05  setid=       0
 node=    70 local x,y,z forces =    5.8257E+04    9.3209E+02   -1.1159E+05  setid=       0
 node=    71 local x,y,z forces =    2.1116E+04   -1.1363E+02    4.2279E+04  setid=       0
 node=    72 local x,y,z forces =   -2.3436E+04    4.3343E+02    3.2021E+04  setid=       0
 node=    73 local x,y,z forces =   -1.8748E+04    1.7894E+03   -5.1644E+04  setid=       0
 node=    74 local x,y,z forces =   -1.7305E+04    3.1476E+03   -1.4623E+05  setid=       0
 node=    75 local x,y,z forces =    5.7976E+04    1.9060E+03   -1.1100E+05  setid=       0
 node=    76 local x,y,z forces =    2.0595E+04   -2.3498E+02    4.1238E+04  setid=       0
 node=    77 local x,y,z forces =   -2.3197E+04    5.7328E+02    3.0781E+04  setid=       0
 node=    78 local x,y,z forces =   -1.8538E+04    2.7024E+03   -5.1718E+04  setid=       0
 node=    79 local x,y,z forces =   -1.7056E+04    4.8353E+03   -1.4513E+05  setid=       0
 node=    80 local x,y,z forces =    5.7485E+04    2.9416E+03   -1.1002E+05  setid=       0
 node=    81 local x,y,z forces =    1.9804E+04   -4.4160E+02    3.9668E+04  setid=       0
 node=    82 local x,y,z forces =   -2.2880E+04    6.2348E+02    2.8946E+04  setid=       0
 node=    83 local x,y,z forces =   -1.8283E+04    3.6752E+03   -5.1783E+04  setid=       0
 node=    84 local x,y,z forces =   -1.6721E+04    6.7314E+03   -1.4342E+05  setid=       0
 node=    85 local x,y,z forces =    5.6744E+04    4.1211E+03   -1.0850E+05  setid=       0
 node=    86 local x,y,z forces =    1.8676E+04   -7.6210E+02    3.7462E+04  setid=       0
 node=    87 local x,y,z forces =   -2.2522E+04    5.3147E+02    2.6367E+04  setid=       0
 node=    88 local x,y,z forces =   -1.8050E+04    4.6545E+03   -5.1985E+04  setid=       0
 node=    89 local x,y,z forces =   -1.6335E+04    8.7850E+03   -1.4125E+05  setid=       0
 node=    90 local x,y,z forces =    5.5703E+04    5.4218E+03   -1.0647E+05  setid=       0
 node=    91 local x,y,z forces =    1.7109E+04   -1.2492E+03    3.4429E+04  setid=       0
 node=    92 local x,y,z forces =   -2.2166E+04    2.8222E+02    2.2921E+04  setid=       0
 node=    93 local x,y,z forces =   -1.7929E+04    5.7881E+03   -5.2129E+04  setid=       0
 node=    94 local x,y,z forces =   -1.5933E+04    1.1302E+04   -1.3809E+05  setid=       0
 node=    95 local x,y,z forces =    5.4269E+04    7.0406E+03   -1.0355E+05  setid=       0
 node=    96 local x,y,z forces =    1.4960E+04   -1.9140E+03    3.0377E+04  setid=       0
 node=    97 local x,y,z forces =   -2.1951E+04   -2.1039E+02    1.8301E+04  setid=       0
 node=    98 local x,y,z forces =   -1.8131E+04    6.8573E+03   -5.2703E+04  setid=       0
 node=    99 local x,y,z forces =   -1.5649E+04    1.3944E+04   -1.3462E+05  setid=       0
 node=   100 local x,y,z forces =    5.2361E+04    8.7795E+03   -1.0004E+05  setid=       0
[...]
 node=    37 local x,y,z forces =   -1.8840E+05    3.0638E+04    7.7601E+05  setid=       0
 node=    38 local x,y,z forces =   -1.7845E+05   -9.1265E+03   -5.2723E+04  setid=       0
 node=    39 local x,y,z forces =   -1.8496E+05   -4.9016E+04   -8.6034E+05  setid=       0
 node=    40 local x,y,z forces =    3.9420E+05   -3.4391E+04   -7.6185E+05  setid=       0
 node=    41 local x,y,z forces =    3.3639E+05    1.8323E+04    6.6317E+05  setid=       0
 node=    42 local x,y,z forces =   -1.9164E+05    2.2024E+04    7.9789E+05  setid=       0
 node=    43 local x,y,z forces =   -1.8085E+05   -7.3761E+03   -5.3970E+04  setid=       0
 node=    44 local x,y,z forces =   -1.8887E+05   -3.6826E+04   -8.8430E+05  setid=       0
 node=    45 local x,y,z forces =    4.0568E+05   -2.5690E+04   -7.8421E+05  setid=       0
 node=    46 local x,y,z forces =    3.4286E+05    1.2523E+04    6.7663E+05  setid=       0
 node=    47 local x,y,z forces =   -1.9453E+05    1.4983E+04    8.1396E+05  setid=       0
 node=    48 local x,y,z forces =   -1.8343E+05   -5.5274E+03   -5.5055E+04  setid=       0
 node=    49 local x,y,z forces =   -1.9229E+05   -2.6032E+04   -9.0232E+05  setid=       0
 node=    50 local x,y,z forces =    4.1377E+05   -1.8083E+04   -8.0061E+05  setid=       0
 node=    51 local x,y,z forces =    3.4708E+05    7.8486E+03    6.8540E+05  setid=       0
 node=    52 local x,y,z forces =   -1.9679E+05    9.3501E+03    8.2451E+05  setid=       0
 node=    53 local x,y,z forces =   -1.8554E+05   -3.7033E+03   -5.5791E+04  setid=       0
 node=    54 local x,y,z forces =   -1.9477E+05   -1.6741E+04   -9.1422E+05  setid=       0
 node=    55 local x,y,z forces =    4.1917E+05   -1.1590E+04   -8.1136E+05  setid=       0
 node=    56 local x,y,z forces =    3.4948E+05    3.7571E+03    6.9050E+05  setid=       0
 node=    57 local x,y,z forces =   -1.9819E+05    4.4638E+03    8.3069E+05  setid=       0
 node=    58 local x,y,z forces =   -1.8693E+05   -1.8495E+03   -5.6263E+04  setid=       0
 node=    59 local x,y,z forces =   -1.9631E+05   -8.1488E+03   -9.2128E+05  setid=       0
 node=    60 local x,y,z forces =    4.2224E+05   -5.6311E+03   -8.1766E+05  setid=       0
 node=    61 local x,y,z forces =    3.5025E+05   -2.6776E-09    6.9210E+05  setid=       0
 node=    62 local x,y,z forces =   -1.9867E+05    9.8953E-10    8.3264E+05  setid=       0
 node=    63 local x,y,z forces =   -1.8740E+05   -7.5670E-10   -5.6407E+04  setid=       0
 node=    64 local x,y,z forces =   -1.9682E+05   -1.2806E-09   -9.2350E+05  setid=       0
 node=    65 local x,y,z forces =    4.2325E+05    8.1491E-10   -8.1964E+05  setid=       0
 node=    66 local x,y,z forces =    3.4948E+05   -3.7571E+03    6.9050E+05  setid=       0
 node=    67 local x,y,z forces =   -1.9819E+05   -4.4638E+03    8.3069E+05  setid=       0
 node=    68 local x,y,z forces =   -1.8693E+05    1.8495E+03   -5.6263E+04  setid=       0
 node=    69 local x,y,z forces =   -1.9631E+05    8.1488E+03   -9.2128E+05  setid=       0
 node=    70 local x,y,z forces =    4.2224E+05    5.6311E+03   -8.1766E+05  setid=       0
 node=    71 local x,y,z forces =    3.4708E+05   -7.8486E+03    6.8540E+05  setid=       0
 node=    72 local x,y,z forces =   -1.9679E+05   -9.3501E+03    8.2451E+05  setid=       0
 node=    73 local x,y,z forces =   -1.8554E+05    3.7033E+03   -5.5791E+04  setid=       0
 node=    74 local x,y,z forces =   -1.9477E+05    1.6741E+04   -9.1422E+05  setid=       0
 node=    75 local x,y,z forces =    4.1917E+05    1.1590E+04   -8.1136E+05  setid=       0
 node=    76 local x,y,z forces =    3.4286E+05   -1.2523E+04    6.7663E+05  setid=       0
 node=    77 local x,y,z forces =   -1.9453E+05   -1.4983E+04    8.1396E+05  setid=       0
 node=    78 local x,y,z forces =   -1.8343E+05    5.5274E+03   -5.5055E+04  setid=       0
 node=    79 local x,y,z forces =   -1.9229E+05    2.6032E+04   -9.0232E+05  setid=       0
 node=    80 local x,y,z forces =    4.1377E+05    1.8083E+04   -8.0061E+05  setid=       0
 node=    81 local x,y,z forces =    3.3639E+05   -1.8323E+04    6.6317E+05  setid=       0
 node=    82 local x,y,z forces =   -1.9164E+05   -2.2024E+04    7.9789E+05  setid=       0
 node=    83 local x,y,z forces =   -1.8085E+05    7.3761E+03   -5.3970E+04  setid=       0
 node=    84 local x,y,z forces =   -1.8887E+05    3.6826E+04   -8.8430E+05  setid=       0
 node=    85 local x,y,z forces =    4.0568E+05    2.5690E+04   -7.8421E+05  setid=       0
 node=    86 local x,y,z forces =    3.2717E+05   -2.5349E+04    6.4456E+05  setid=       0
 node=    87 local x,y,z forces =   -1.8840E+05   -3.0638E+04    7.7601E+05  setid=       0
 node=    88 local x,y,z forces =   -1.7845E+05    9.1265E+03   -5.2723E+04  setid=       0
 node=    89 local x,y,z forces =   -1.8496E+05    4.9016E+04   -8.6034E+05  setid=       0
 node=    90 local x,y,z forces =    3.9420E+05    3.4391E+04   -7.6185E+05  setid=       0
 node=    91 local x,y,z forces =    3.1414E+05   -3.4710E+04    6.1829E+05  setid=       0
 node=    92 local x,y,z forces =   -1.8553E+05   -4.2111E+04    7.4556E+05  setid=       0
 node=    93 local x,y,z forces =   -1.7710E+05    1.0974E+04   -5.1055E+04  setid=       0
 node=    94 local x,y,z forces =   -1.8058E+05    6.4386E+04   -8.2717E+05  setid=       0
 node=    95 local x,y,z forces =    3.7856E+05    4.5476E+04   -7.3051E+05  setid=       0
 node=    96 local x,y,z forces =    2.9650E+05   -4.5727E+04    5.8441E+05  setid=       0
 node=    97 local x,y,z forces =   -1.8405E+05   -5.5771E+04    7.0732E+05  setid=       0
 node=    98 local x,y,z forces =   -1.7885E+05    1.2487E+04   -4.9624E+04  setid=       0
 node=    99 local x,y,z forces =   -1.7748E+05    8.1282E+04   -7.8717E+05  setid=       0
 node=   100 local x,y,z forces =    3.5732E+05    5.7883E+04   -6.9089E+05  setid=       0
 node=   101 local x,y,z forces =    2.7184E+05   -6.1318E+04    5.3666E+05  setid=       0
 node=   102 local x,y,z forces =   -1.8633E+05   -7.4638E+04    6.5443E+05  setid=       0
 node=   103 local x,y,z forces =   -1.8645E+05    1.4401E+04   -4.7502E+04  setid=       0
 node=   104 local x,y,z forces =   -1.7576E+05    1.0461E+05   -7.3160E+05  setid=       0
 node=   105 local x,y,z forces =    3.2910E+05    7.5286E+04   -6.3507E+05  setid=       0
 node=   106 local x,y,z forces =    2.3983E+05   -7.5951E+04    4.8073E+05  setid=       0
 node=   107 local x,y,z forces =   -1.9663E+05   -9.3187E+04    5.9626E+05  setid=       0
 node=   108 local x,y,z forces =   -2.0725E+05    1.4918E+04   -4.7513E+04  setid=       0
 node=   109 local x,y,z forces =   -1.8301E+05    1.2468E+05   -6.7592E+05  setid=       0
 node=   110 local x,y,z forces =    2.9153E+05    9.0699E+04   -5.7207E+05  setid=       0
 node=   111 local x,y,z forces =    1.9468E+05   -1.0087E+05    3.9725E+05  setid=       0
 node=   112 local x,y,z forces =   -2.2337E+05   -1.2140E+05    5.1173E+05  setid=       0
 node=   113 local x,y,z forces =   -2.5199E+05    1.8139E+04   -4.4797E+04  setid=       0
 node=   114 local x,y,z forces =   -1.9856E+05    1.6026E+05   -5.9070E+05  setid=       0
 node=   115 local x,y,z forces =    2.4348E+05    1.1918E+05   -4.7616E+05  setid=       0
 node=   116 local x,y,z forces =    1.5467E+05   -7.8782E+04    3.6304E+05  setid=       0
 node=   117 local x,y,z forces =   -3.0398E+05   -9.5708E+04    5.1270E+05  setid=       0
 node=   118 local x,y,z forces =   -3.7345E+05    6.1058E+03   -6.1807E+04  setid=       0
 node=   119 local x,y,z forces =   -2.7443E+05    1.1436E+05   -6.2858E+05  setid=       0
 node=   120 local x,y,z forces =    1.9694E+05    9.5210E+04   -4.5502E+05  setid=       0
 node=   121 local x,y,z forces =    6.9443E+04   -1.5153E+05    2.1777E+05  setid=       0
 node=   122 local x,y,z forces =   -1.8911E+05   -1.9471E+05    3.1917E+05  setid=       0
 node=   123 local x,y,z forces =   -2.3773E+05    3.1440E+04   -4.4102E+04  setid=       0
 node=   124 local x,y,z forces =   -1.7075E+05    2.5168E+05   -4.0542E+05  setid=       0
 node=   125 local x,y,z forces =    9.2932E+04    1.8236E+05   -2.8071E+05  setid=       0
 node=  6251 local x,y,z forces =    6.9445E+04    1.5153E+05    0.0000E+00  setid=       0
 node=  6252 local x,y,z forces =   -1.8911E+05    1.9472E+05    0.0000E+00  setid=       0
 node=  6253 local x,y,z forces =   -2.3773E+05   -3.1435E+04    0.0000E+00  setid=       0
 node=  6254 local x,y,z forces =   -1.7075E+05   -2.5167E+05    0.0000E+00  setid=       0
 node=  6255 local x,y,z forces =    9.2930E+04   -1.8235E+05    0.0000E+00  setid=       0
 node=  6256 local x,y,z forces =    1.5468E+05    7.8782E+04    0.0000E+00  setid=       0
 node=  6257 local x,y,z forces =   -3.0398E+05    9.5708E+04    0.0000E+00  setid=       0
 node=  6258 local x,y,z forces =   -3.7345E+05   -6.1058E+03    0.0000E+00  setid=       0
 node=  6259 local x,y,z forces =   -2.7443E+05   -1.1436E+05    0.0000E+00  setid=       0
 node=  6260 local x,y,z forces =    1.9694E+05   -9.5210E+04    0.0000E+00  setid=       0
 node=  6261 local x,y,z forces =    1.9469E+05    1.0087E+05    0.0000E+00  setid=       0
 node=  6262 local x,y,z forces =   -2.2337E+05    1.2140E+05    0.0000E+00  setid=       0
 node=  6263 local x,y,z forces =   -2.5199E+05   -1.8139E+04    0.0000E+00  setid=       0
 node=  6264 local x,y,z forces =   -1.9856E+05   -1.6026E+05    0.0000E+00  setid=       0
 node=  6265 local x,y,z forces =    2.4348E+05   -1.1918E+05    0.0000E+00  setid=       0
 node=  6266 local x,y,z forces =    2.3984E+05    7.5951E+04    0.0000E+00  setid=       0
 node=  6267 local x,y,z forces =   -1.9663E+05    9.3187E+04    0.0000E+00  setid=       0
 node=  6268 local x,y,z forces =   -2.0725E+05   -1.4918E+04    0.0000E+00  setid=       0
 node=  6269 local x,y,z forces =   -1.8301E+05   -1.2468E+05    0.0000E+00  setid=       0
 node=  6270 local x,y,z forces =    2.9153E+05   -9.0699E+04    0.0000E+00  setid=       0
 node=  6271 local x,y,z forces =    2.7184E+05    6.1318E+04    0.0000E+00  setid=       0
 node=  6272 local x,y,z forces =   -1.8633E+05    7.4638E+04    0.0000E+00  setid=       0
 node=  6273 local x,y,z forces =   -1.8645E+05   -1.4401E+04    0.0000E+00  setid=       0
 node=  6274 local x,y,z forces =   -1.7576E+05   -1.0461E+05    0.0000E+00  setid=       0
 node=  6275 local x,y,z forces =    3.2909E+05   -7.5286E+04    0.0000E+00  setid=       0
 node=  6276 local x,y,z forces =    2.9650E+05    4.5727E+04    0.0000E+00  setid=       0
 node=  6277 local x,y,z forces =   -1.8405E+05    5.5771E+04    0.0000E+00  setid=       0
 node=  6278 local x,y,z forces =   -1.7885E+05   -1.2487E+04    0.0000E+00  setid=       0
 node=  6279 local x,y,z forces =   -1.7748E+05   -8.1282E+04    0.0000E+00  setid=       0
 node=  6280 local x,y,z forces =    3.5731E+05   -5.7883E+04    0.0000E+00  setid=       0
 node=  6281 local x,y,z forces =    3.1415E+05    3.4710E+04    0.0000E+00  setid=       0
 node=  6282 local x,y,z forces =   -1.8553E+05    4.2111E+04    0.0000E+00  setid=       0
 node=  6283 local x,y,z forces =   -1.7710E+05   -1.0974E+04    0.0000E+00  setid=       0
 node=  6284 local x,y,z forces =   -1.8058E+05   -6.4386E+04    0.0000E+00  setid=       0
 node=  6285 local x,y,z forces =    3.7856E+05   -4.5476E+04    0.0000E+00  setid=       0
 node=  6286 local x,y,z forces =    3.2717E+05    2.5349E+04    0.0000E+00  setid=       0
 node=  6287 local x,y,z forces =   -1.8840E+05    3.0638E+04    0.0000E+00  setid=       0
 node=  6288 local x,y,z forces =   -1.7845E+05   -9.1265E+03    0.0000E+00  setid=       0
 node=  6289 local x,y,z forces =   -1.8496E+05   -4.9016E+04    0.0000E+00  setid=       0
 node=  6290 local x,y,z forces =    3.9420E+05   -3.4391E+04    0.0000E+00  setid=       0
 node=  6291 local x,y,z forces =    3.3639E+05    1.8323E+04    0.0000E+00  setid=       0
 node=  6292 local x,y,z forces =   -1.9164E+05    2.2024E+04    0.0000E+00  setid=       0
 node=  6293 local x,y,z forces =   -1.8085E+05   -7.3761E+03    0.0000E+00  setid=       0
 node=  6294 local x,y,z forces =   -1.8887E+05   -3.6826E+04    0.0000E+00  setid=       0
 node=  6295 local x,y,z forces =    4.0567E+05   -2.5690E+04    0.0000E+00  setid=       0
 node=  6296 local x,y,z forces =    3.4287E+05    1.2523E+04    0.0000E+00  setid=       0
 node=  6297 local x,y,z forces =   -1.9453E+05    1.4983E+04    0.0000E+00  setid=       0
 node=  6298 local x,y,z forces =   -1.8343E+05   -5.5274E+03    0.0000E+00  setid=       0
 node=  6299 local x,y,z forces =   -1.9229E+05   -2.6032E+04    0.0000E+00  setid=       0
 node=  6300 local x,y,z forces =    4.1376E+05   -1.8083E+04    0.0000E+00  setid=       0
 node=  6301 local x,y,z forces =    3.4708E+05    7.8486E+03    0.0000E+00  setid=       0
 node=  6302 local x,y,z forces =   -1.9679E+05    9.3501E+03    0.0000E+00  setid=       0
 node=  6303 local x,y,z forces =   -1.8554E+05   -3.7033E+03    0.0000E+00  setid=       0
 node=  6304 local x,y,z forces =   -1.9477E+05   -1.6741E+04    0.0000E+00  setid=       0
 node=  6305 local x,y,z forces =    4.1916E+05   -1.1590E+04    0.0000E+00  setid=       0
 node=  6306 local x,y,z forces =    3.4949E+05    3.7571E+03    0.0000E+00  setid=       0
 node=  6307 local x,y,z forces =   -1.9819E+05    4.4638E+03    0.0000E+00  setid=       0
 node=  6308 local x,y,z forces =   -1.8693E+05   -1.8495E+03    0.0000E+00  setid=       0
 node=  6309 local x,y,z forces =   -1.9631E+05   -8.1488E+03    0.0000E+00  setid=       0
 node=  6310 local x,y,z forces =    4.2224E+05   -5.6311E+03    0.0000E+00  setid=       0
 node=  6311 local x,y,z forces =    3.5025E+05    1.6298E-09    0.0000E+00  setid=       0
 node=  6312 local x,y,z forces =   -1.9867E+05   -6.2282E-09    0.0000E+00  setid=       0
 node=  6313 local x,y,z forces =   -1.8740E+05   -7.5670E-10    0.0000E+00  setid=       0
 node=  6314 local x,y,z forces =   -1.9682E+05    9.3132E-10    0.0000E+00  setid=       0
 node=  6315 local x,y,z forces =    4.2325E+05   -4.6566E-10    0.0000E+00  setid=       0
 node=  6316 local x,y,z forces =    3.4949E+05   -3.7571E+03    0.0000E+00  setid=       0
 node=  6317 local x,y,z forces =   -1.9819E+05   -4.4638E+03    0.0000E+00  setid=       0
 node=  6318 local x,y,z forces =   -1.8693E+05    1.8495E+03    0.0000E+00  setid=       0
 node=  6319 local x,y,z forces =   -1.9631E+05    8.1488E+03    0.0000E+00  setid=       0
 node=  6320 local x,y,z forces =    4.2224E+05    5.6311E+03    0.0000E+00  setid=       0
 node=  6321 local x,y,z forces =    3.4708E+05   -7.8486E+03    0.0000E+00  setid=       0
 node=  6322 local x,y,z forces =   -1.9679E+05   -9.3501E+03    0.0000E+00  setid=       0
 node=  6323 local x,y,z forces =   -1.8554E+05    3.7033E+03    0.0000E+00  setid=       0
 node=  6324 local x,y,z forces =   -1.9477E+05    1.6741E+04    0.0000E+00  setid=       0
 node=  6325 local x,y,z forces =    4.1916E+05    1.1590E+04    0.0000E+00  setid=       0
 node=  6326 local x,y,z forces =    3.4287E+05   -1.2523E+04    0.0000E+00  setid=       0
 node=  6327 local x,y,z forces =   -1.9453E+05   -1.4983E+04    0.0000E+00  setid=       0
 node=  6328 local x,y,z forces =   -1.8343E+05    5.5274E+03    0.0000E+00  setid=       0
 node=  6329 local x,y,z forces =   -1.9229E+05    2.6032E+04    0.0000E+00  setid=       0
 node=  6330 local x,y,z forces =    4.1376E+05    1.8083E+04    0.0000E+00  setid=       0
 node=  6331 local x,y,z forces =    3.3639E+05   -1.8323E+04    0.0000E+00  setid=       0
 node=  6332 local x,y,z forces =   -1.9164E+05   -2.2024E+04    0.0000E+00  setid=       0
 node=  6333 local x,y,z forces =   -1.8085E+05    7.3761E+03    0.0000E+00  setid=       0
 node=  6334 local x,y,z forces =   -1.8887E+05    3.6826E+04    0.0000E+00  setid=       0
 node=  6335 local x,y,z forces =    4.0567E+05    2.5690E+04    0.0000E+00  setid=       0
 node=  6336 local x,y,z forces =    3.2717E+05   -2.5349E+04    0.0000E+00  setid=       0
 node=  6337 local x,y,z forces =   -1.8840E+05   -3.0638E+04    0.0000E+00  setid=       0
 node=  6338 local x,y,z forces =   -1.7845E+05    9.1265E+03    0.0000E+00  setid=       0
 node=  6339 local x,y,z forces =   -1.8496E+05    4.9016E+04    0.0000E+00  setid=       0
 node=  6340 local x,y,z forces =    3.9420E+05    3.4391E+04    0.0000E+00  setid=       0
 node=  6341 local x,y,z forces =    3.1415E+05   -3.4710E+04    0.0000E+00  setid=       0
 node=  6342 local x,y,z forces =   -1.8553E+05   -4.2111E+04    0.0000E+00  setid=       0
 node=  6343 local x,y,z forces =   -1.7710E+05    1.0974E+04    0.0000E+00  setid=       0
 node=  6344 local x,y,z forces =   -1.8058E+05    6.4386E+04    0.0000E+00  setid=       0
 node=  6345 local x,y,z forces =    3.7856E+05    4.5476E+04    0.0000E+00  setid=       0
 node=  6346 local x,y,z forces =    2.9650E+05   -4.5727E+04    0.0000E+00  setid=       0
 node=  6347 local x,y,z forces =   -1.8405E+05   -5.5771E+04    0.0000E+00  setid=       0
 node=  6348 local x,y,z forces =   -1.7885E+05    1.2487E+04    0.0000E+00  setid=       0
 node=  6349 local x,y,z forces =   -1.7748E+05    8.1282E+04    0.0000E+00  setid=       0
 node=  6350 local x,y,z forces =    3.5731E+05    5.7883E+04    0.0000E+00  setid=       0
 node=  6351 local x,y,z forces =    2.7184E+05   -6.1318E+04    0.0000E+00  setid=       0
 node=  6352 local x,y,z forces =   -1.8633E+05   -7.4638E+04    0.0000E+00  setid=       0
 node=  6353 local x,y,z forces =   -1.8645E+05    1.4401E+04    0.0000E+00  setid=       0
 node=  6354 local x,y,z forces =   -1.7576E+05    1.0461E+05    0.0000E+00  setid=       0
 node=  6355 local x,y,z forces =    3.2909E+05    7.5286E+04    0.0000E+00  setid=       0
 node=  6356 local x,y,z forces =    2.3984E+05   -7.5951E+04    0.0000E+00  setid=       0
 node=  6357 local x,y,z forces =   -1.9663E+05   -9.3187E+04    0.0000E+00  setid=       0
 node=  6358 local x,y,z forces =   -2.0725E+05    1.4918E+04    0.0000E+00  setid=       0
 node=  6359 local x,y,z forces =   -1.8301E+05    1.2468E+05    0.0000E+00  setid=       0
 node=  6360 local x,y,z forces =    2.9153E+05    9.0699E+04    0.0000E+00  setid=       0
 node=  6361 local x,y,z forces =    1.9469E+05   -1.0087E+05    0.0000E+00  setid=       0
 node=  6362 local x,y,z forces =   -2.2337E+05   -1.2140E+05    0.0000E+00  setid=       0
 node=  6363 local x,y,z forces =   -2.5199E+05    1.8139E+04    0.0000E+00  setid=       0
 node=  6364 local x,y,z forces =   -1.9856E+05    1.6026E+05    0.0000E+00  setid=       0
 node=  6365 local x,y,z forces =    2.4348E+05    1.1918E+05    0.0000E+00  setid=       0
 node=  6366 local x,y,z forces =    1.5468E+05   -7.8782E+04    0.0000E+00  setid=       0
 node=  6367 local x,y,z forces =   -3.0398E+05   -9.5708E+04    0.0000E+00  setid=       0
 node=  6368 local x,y,z forces =   -3.7345E+05    6.1058E+03    0.0000E+00  setid=       0
 node=  6369 local x,y,z forces =   -2.7443E+05    1.1436E+05    0.0000E+00  setid=       0
 node=  6370 local x,y,z forces =    1.9694E+05    9.5210E+04    0.0000E+00  setid=       0
 node=  6371 local x,y,z forces =    6.9445E+04   -1.5153E+05    0.0000E+00  setid=       0
 node=  6372 local x,y,z forces =   -1.8911E+05   -1.9472E+05    0.0000E+00  setid=       0
 node=  6373 local x,y,z forces =   -2.3773E+05    3.1435E+04    0.0000E+00  setid=       0
 node=  6374 local x,y,z forces =   -1.7075E+05    2.5167E+05    0.0000E+00  setid=       0
 node=  6375 local x,y,z forces =    9.2930E+04    1.8235E+05    0.0000E+00  setid=       0
             force resultants   =    5.4340E+01    7.4506E-09   -6.1082E+06
