 400x600                                                                 
                         ls-dyna smp.123264 d           date 01/12/2018

{BEGIN LEGEND}
 Entity #        Title
        0     middle                                                                
        0     bottom                                                                
{END LEGEND}

 single point constraint forces

 output at time =   0.00000E+00
 node=    46 local x,y,z forces =    0.0000E+00    0.0000E+00    0.0000E+00  setid=       0
 node=  2276 local x,y,z forces =    0.0000E+00    0.0000E+00    0.0000E+00  setid=       0
 node=  2282 local x,y,z forces =    0.0000E+00    0.0000E+00    0.0000E+00  setid=       0
 node=  2283 local x,y,z forces =    0.0000E+00    0.0000E+00    0.0000E+00  setid=       0
 node=  2289 local x,y,z forces =    0.0000E+00    0.0000E+00    0.0000E+00  setid=       0
 node=  2290 local x,y,z forces =    0.0000E+00    0.0000E+00    0.0000E+00  setid=       0
 node=  2296 local x,y,z forces =    0.0000E+00    0.0000E+00    0.0000E+00  setid=       0
 node=  2297 local x,y,z forces =    0.0000E+00    0.0000E+00    0.0000E+00  setid=       0
 node=  2303 local x,y,z forces =    0.0000E+00    0.0000E+00    0.0000E+00  setid=       0
 node=  2304 local x,y,z forces =    0.0000E+00    0.0000E+00    0.0000E+00  setid=       0
 node=  2310 local x,y,z forces =    0.0000E+00    0.0000E+00    0.0000E+00  setid=       0
 node=  2311 local x,y,z forces =    0.0000E+00    0.0000E+00    0.0000E+00  setid=       0
 node=  2317 local x,y,z forces =    0.0000E+00    0.0000E+00    0.0000E+00  setid=       0
 node=  2318 local x,y,z forces =    0.0000E+00    0.0000E+00    0.0000E+00  setid=       0
 node=  2324 local x,y,z forces =    0.0000E+00    0.0000E+00    0.0000E+00  setid=       0
 node=  2325 local x,y,z forces =    0.0000E+00    0.0000E+00    0.0000E+00  setid=       0
 node=  2331 local x,y,z forces =    0.0000E+00    0.0000E+00    0.0000E+00  setid=       0
 node=  2332 local x,y,z forces =    0.0000E+00    0.0000E+00    0.0000E+00  setid=       0
 node=  2338 local x,y,z forces =    0.0000E+00    0.0000E+00    0.0000E+00  setid=       0
 node=  2339 local x,y,z forces =    0.0000E+00    0.0000E+00    0.0000E+00  setid=       0
 node=  2345 local x,y,z forces =    0.0000E+00    0.0000E+00    0.0000E+00  setid=       0
 node=  2346 local x,y,z forces =    0.0000E+00    0.0000E+00    0.0000E+00  setid=       0
 node=  2352 local x,y,z forces =    0.0000E+00    0.0000E+00    0.0000E+00  setid=       0
 node=  2353 local x,y,z forces =    0.0000E+00    0.0000E+00    0.0000E+00  setid=       0
 node=  2359 local x,y,z forces =    0.0000E+00    0.0000E+00    0.0000E+00  setid=       0
 node=  2360 local x,y,z forces =    0.0000E+00    0.0000E+00    0.0000E+00  setid=       0
 node=  2366 local x,y,z forces =    0.0000E+00    0.0000E+00    0.0000E+00  setid=       0
             force resultants   =    0.0000E+00    0.0000E+00    0.0000E+00
 output at time =   2.00000E-04
 node=    46 local x,y,z forces =    1.1585E-04   -4.9298E-01   -3.1304E+06  setid=       0
 node=  2276 local x,y,z forces =   -9.8725E+03    0.0000E+00    0.0000E+00  setid=       0
 node=  2282 local x,y,z forces =    9.8725E+03    0.0000E+00    0.0000E+00  setid=       0
 node=  2283 local x,y,z forces =   -2.0328E+04    0.0000E+00    0.0000E+00  setid=       0
 node=  2289 local x,y,z forces =    2.0328E+04    0.0000E+00    0.0000E+00  setid=       0
 node=  2290 local x,y,z forces =   -2.0935E+04    0.0000E+00    0.0000E+00  setid=       0
 node=  2296 local x,y,z forces =    2.0935E+04    0.0000E+00    0.0000E+00  setid=       0
 node=  2297 local x,y,z forces =   -2.1054E+04    0.0000E+00    0.0000E+00  setid=       0
 node=  2303 local x,y,z forces =    2.1054E+04    0.0000E+00    0.0000E+00  setid=       0
 node=  2304 local x,y,z forces =   -2.1111E+04    0.0000E+00    0.0000E+00  setid=       0
 node=  2310 local x,y,z forces =    2.1111E+04    0.0000E+00    0.0000E+00  setid=       0
 node=  2311 local x,y,z forces =   -2.1140E+04    0.0000E+00    0.0000E+00  setid=       0
 node=  2317 local x,y,z forces =    2.1140E+04    0.0000E+00    0.0000E+00  setid=       0
 node=  2318 local x,y,z forces =   -2.1153E+04    0.0000E+00    0.0000E+00  setid=       0
 node=  2324 local x,y,z forces =    2.1153E+04    0.0000E+00    0.0000E+00  setid=       0
 node=  2325 local x,y,z forces =   -2.1140E+04    0.0000E+00    0.0000E+00  setid=       0
 node=  2331 local x,y,z forces =    2.1140E+04    0.0000E+00    0.0000E+00  setid=       0
 node=  2332 local x,y,z forces =   -2.1112E+04    0.0000E+00    0.0000E+00  setid=       0
 node=  2338 local x,y,z forces =    2.1112E+04    0.0000E+00    0.0000E+00  setid=       0
 node=  2339 local x,y,z forces =   -2.1055E+04    0.0000E+00    0.0000E+00  setid=       0
 node=  2345 local x,y,z forces =    2.1055E+04    0.0000E+00    0.0000E+00  setid=       0
 node=  2346 local x,y,z forces =   -2.0935E+04    0.0000E+00    0.0000E+00  setid=       0
 node=  2352 local x,y,z forces =    2.0935E+04    0.0000E+00    0.0000E+00  setid=       0
 node=  2353 local x,y,z forces =   -2.0329E+04    0.0000E+00    0.0000E+00  setid=       0
 node=  2359 local x,y,z forces =    2.0329E+04    0.0000E+00    0.0000E+00  setid=       0
 node=  2360 local x,y,z forces =   -9.8730E+03    0.0000E+00    0.0000E+00  setid=       0
 node=  2366 local x,y,z forces =    9.8730E+03    0.0000E+00    0.0000E+00  setid=       0
             force resultants   =   -1.0910E-04   -4.9298E-01   -3.1304E+06
 output at time =   4.00000E-04
 node=    46 local x,y,z forces =    2.6109E-04   -1.1337E+01   -6.2741E+06  setid=       0
 node=  2276 local x,y,z forces =   -1.9781E+04    0.0000E+00    0.0000E+00  setid=       0
 node=  2282 local x,y,z forces =    1.9781E+04    0.0000E+00    0.0000E+00  setid=       0
 node=  2283 local x,y,z forces =   -4.0730E+04    0.0000E+00    0.0000E+00  setid=       0
 node=  2289 local x,y,z forces =    4.0730E+04    0.0000E+00    0.0000E+00  setid=       0
 node=  2290 local x,y,z forces =   -4.1946E+04    0.0000E+00    0.0000E+00  setid=       0
 node=  2296 local x,y,z forces =    4.1946E+04    0.0000E+00    0.0000E+00  setid=       0
 node=  2297 local x,y,z forces =   -4.2187E+04    0.0000E+00    0.0000E+00  setid=       0
 node=  2303 local x,y,z forces =    4.2187E+04    0.0000E+00    0.0000E+00  setid=       0
 node=  2304 local x,y,z forces =   -4.2301E+04    0.0000E+00    0.0000E+00  setid=       0
 node=  2310 local x,y,z forces =    4.2301E+04    0.0000E+00    0.0000E+00  setid=       0
 node=  2311 local x,y,z forces =   -4.2359E+04    0.0000E+00    0.0000E+00  setid=       0
 node=  2317 local x,y,z forces =    4.2359E+04    0.0000E+00    0.0000E+00  setid=       0
 node=  2318 local x,y,z forces =   -4.2386E+04    0.0000E+00    0.0000E+00  setid=       0
 node=  2324 local x,y,z forces =    4.2386E+04    0.0000E+00    0.0000E+00  setid=       0
 node=  2325 local x,y,z forces =   -4.2359E+04    0.0000E+00    0.0000E+00  setid=       0
 node=  2331 local x,y,z forces =    4.2359E+04    0.0000E+00    0.0000E+00  setid=       0
 node=  2332 local x,y,z forces =   -4.2302E+04    0.0000E+00    0.0000E+00  setid=       0
 node=  2338 local x,y,z forces =    4.2302E+04    0.0000E+00    0.0000E+00  setid=       0
 node=  2339 local x,y,z forces =   -4.2189E+04    0.0000E+00    0.0000E+00  setid=       0
 node=  2345 local x,y,z forces =    4.2189E+04    0.0000E+00    0.0000E+00  setid=       0
 node=  2346 local x,y,z forces =   -4.1949E+04    0.0000E+00    0.0000E+00  setid=       0
 node=  2352 local x,y,z forces =    4.1949E+04    0.0000E+00    0.0000E+00  setid=       0
 node=  2353 local x,y,z forces =   -4.0733E+04    0.0000E+00    0.0000E+00  setid=       0
 node=  2359 local x,y,z forces =    4.0733E+04    0.0000E+00    0.0000E+00  setid=       0
 node=  2360 local x,y,z forces =   -1.9783E+04    0.0000E+00    0.0000E+00  setid=       0
 node=  2366 local x,y,z forces =    1.9783E+04    0.0000E+00    0.0000E+00  setid=       0
             force resultants   =   -2.0568E-04   -1.1337E+01   -6.2741E+06
 output at time =   6.00000E-04
 node=    46 local x,y,z forces =    4.3824E-04   -3.3151E+01   -9.4313E+06  setid=       0
 node=  2276 local x,y,z forces =   -2.9725E+04    0.0000E+00    0.0000E+00  setid=       0
 node=  2282 local x,y,z forces =    2.9725E+04    0.0000E+00    0.0000E+00  setid=       0
 node=  2283 local x,y,z forces =   -6.1205E+04    0.0000E+00    0.0000E+00  setid=       0
 node=  2289 local x,y,z forces =    6.1205E+04    0.0000E+00    0.0000E+00  setid=       0
 node=  2290 local x,y,z forces =   -6.3034E+04    0.0000E+00    0.0000E+00  setid=       0
 node=  2296 local x,y,z forces =    6.3034E+04    0.0000E+00    0.0000E+00  setid=       0
 node=  2297 local x,y,z forces =   -6.3396E+04    0.0000E+00    0.0000E+00  setid=       0
 node=  2303 local x,y,z forces =    6.3396E+04    0.0000E+00    0.0000E+00  setid=       0
 node=  2304 local x,y,z forces =   -6.3568E+04    0.0000E+00    0.0000E+00  setid=       0
 node=  2310 local x,y,z forces =    6.3568E+04    0.0000E+00    0.0000E+00  setid=       0
 node=  2311 local x,y,z forces =   -6.3656E+04    0.0000E+00    0.0000E+00  setid=       0
 node=  2317 local x,y,z forces =    6.3656E+04    0.0000E+00    0.0000E+00  setid=       0
 node=  2318 local x,y,z forces =   -6.3696E+04    0.0000E+00    0.0000E+00  setid=       0
 node=  2324 local x,y,z forces =    6.3696E+04    0.0000E+00    0.0000E+00  setid=       0
 node=  2325 local x,y,z forces =   -6.3657E+04    0.0000E+00    0.0000E+00  setid=       0
 node=  2331 local x,y,z forces =    6.3657E+04    0.0000E+00    0.0000E+00  setid=       0
 node=  2332 local x,y,z forces =   -6.3572E+04    0.0000E+00    0.0000E+00  setid=       0
 node=  2338 local x,y,z forces =    6.3572E+04    0.0000E+00    0.0000E+00  setid=       0
 node=  2339 local x,y,z forces =   -6.3402E+04    0.0000E+00    0.0000E+00  setid=       0
 node=  2345 local x,y,z forces =    6.3402E+04    0.0000E+00    0.0000E+00  setid=       0
 node=  2346 local x,y,z forces =   -6.3042E+04    0.0000E+00    0.0000E+00  setid=       0
 node=  2352 local x,y,z forces =    6.3042E+04    0.0000E+00    0.0000E+00  setid=       0
 node=  2353 local x,y,z forces =   -6.1214E+04    0.0000E+00    0.0000E+00  setid=       0
 node=  2359 local x,y,z forces =    6.1214E+04    0.0000E+00    0.0000E+00  setid=       0
 node=  2360 local x,y,z forces =   -2.9730E+04    0.0000E+00    0.0000E+00  setid=       0
 node=  2366 local x,y,z forces =    2.9730E+04    0.0000E+00    0.0000E+00  setid=       0
             force resultants   =   -2.8882E-04   -3.3151E+01   -9.4313E+06
 output at time =   8.00000E-04
 node=    46 local x,y,z forces =    6.4798E-04   -6.6535E+01   -1.2602E+07  setid=       0
 node=  2276 local x,y,z forces =   -3.9704E+04    0.0000E+00    0.0000E+00  setid=       0
 node=  2282 local x,y,z forces =    3.9704E+04    0.0000E+00    0.0000E+00  setid=       0
 node=  2283 local x,y,z forces =   -8.1752E+04    0.0000E+00    0.0000E+00  setid=       0
 node=  2289 local x,y,z forces =    8.1752E+04    0.0000E+00    0.0000E+00  setid=       0
 node=  2290 local x,y,z forces =   -8.4199E+04    0.0000E+00    0.0000E+00  setid=       0
 node=  2296 local x,y,z forces =    8.4199E+04    0.0000E+00    0.0000E+00  setid=       0
 node=  2297 local x,y,z forces =   -8.4683E+04    0.0000E+00    0.0000E+00  setid=       0
 node=  2303 local x,y,z forces =    8.4683E+04    0.0000E+00    0.0000E+00  setid=       0
 node=  2304 local x,y,z forces =   -8.4913E+04    0.0000E+00    0.0000E+00  setid=       0
 node=  2310 local x,y,z forces =    8.4913E+04    0.0000E+00    0.0000E+00  setid=       0
 node=  2311 local x,y,z forces =   -8.5031E+04    0.0000E+00    0.0000E+00  setid=       0
 node=  2317 local x,y,z forces =    8.5031E+04    0.0000E+00    0.0000E+00  setid=       0
 node=  2318 local x,y,z forces =   -8.5086E+04    0.0000E+00    0.0000E+00  setid=       0
 node=  2324 local x,y,z forces =    8.5086E+04    0.0000E+00    0.0000E+00  setid=       0
 node=  2325 local x,y,z forces =   -8.5034E+04    0.0000E+00    0.0000E+00  setid=       0
 node=  2331 local x,y,z forces =    8.5034E+04    0.0000E+00    0.0000E+00  setid=       0
 node=  2332 local x,y,z forces =   -8.4920E+04    0.0000E+00    0.0000E+00  setid=       0
 node=  2338 local x,y,z forces =    8.4920E+04    0.0000E+00    0.0000E+00  setid=       0
 node=  2339 local x,y,z forces =   -8.4694E+04    0.0000E+00    0.0000E+00  setid=       0
 node=  2345 local x,y,z forces =    8.4694E+04    0.0000E+00    0.0000E+00  setid=       0
 node=  2346 local x,y,z forces =   -8.4213E+04    0.0000E+00    0.0000E+00  setid=       0
 node=  2352 local x,y,z forces =    8.4213E+04    0.0000E+00    0.0000E+00  setid=       0
 node=  2353 local x,y,z forces =   -8.1770E+04    0.0000E+00    0.0000E+00  setid=       0
 node=  2359 local x,y,z forces =    8.1770E+04    0.0000E+00    0.0000E+00  setid=       0
 node=  2360 local x,y,z forces =   -3.9714E+04    0.0000E+00    0.0000E+00  setid=       0
 node=  2366 local x,y,z forces =    3.9714E+04    0.0000E+00    0.0000E+00  setid=       0
             force resultants   =   -3.5967E-04   -6.6535E+01   -1.2602E+07
 output at time =   1.00000E-03
 node=    46 local x,y,z forces =    8.9110E-04   -1.1213E+02   -1.5786E+07  setid=       0
 node=  2276 local x,y,z forces =   -4.9719E+04    0.0000E+00    0.0000E+00  setid=       0
 node=  2282 local x,y,z forces =    4.9719E+04    0.0000E+00    0.0000E+00  setid=       0
 node=  2283 local x,y,z forces =   -1.0237E+05    0.0000E+00    0.0000E+00  setid=       0
 node=  2289 local x,y,z forces =    1.0237E+05    0.0000E+00    0.0000E+00  setid=       0
 node=  2290 local x,y,z forces =   -1.0544E+05    0.0000E+00    0.0000E+00  setid=       0
 node=  2296 local x,y,z forces =    1.0544E+05    0.0000E+00    0.0000E+00  setid=       0
 node=  2297 local x,y,z forces =   -1.0605E+05    0.0000E+00    0.0000E+00  setid=       0
 node=  2303 local x,y,z forces =    1.0605E+05    0.0000E+00    0.0000E+00  setid=       0
 node=  2304 local x,y,z forces =   -1.0634E+05    0.0000E+00    0.0000E+00  setid=       0
 node=  2310 local x,y,z forces =    1.0634E+05    0.0000E+00    0.0000E+00  setid=       0
 node=  2311 local x,y,z forces =   -1.0648E+05    0.0000E+00    0.0000E+00  setid=       0
 node=  2317 local x,y,z forces =    1.0648E+05    0.0000E+00    0.0000E+00  setid=       0
 node=  2318 local x,y,z forces =   -1.0655E+05    0.0000E+00    0.0000E+00  setid=       0
 node=  2324 local x,y,z forces =    1.0655E+05    0.0000E+00    0.0000E+00  setid=       0
 node=  2325 local x,y,z forces =   -1.0649E+05    0.0000E+00    0.0000E+00  setid=       0
 node=  2331 local x,y,z forces =    1.0649E+05    0.0000E+00    0.0000E+00  setid=       0
 node=  2332 local x,y,z forces =   -1.0635E+05    0.0000E+00    0.0000E+00  setid=       0
 node=  2338 local x,y,z forces =    1.0635E+05    0.0000E+00    0.0000E+00  setid=       0
 node=  2339 local x,y,z forces =   -1.0606E+05    0.0000E+00    0.0000E+00  setid=       0
 node=  2345 local x,y,z forces =    1.0606E+05    0.0000E+00    0.0000E+00  setid=       0
 node=  2346 local x,y,z forces =   -1.0546E+05    0.0000E+00    0.0000E+00  setid=       0
 node=  2352 local x,y,z forces =    1.0546E+05    0.0000E+00    0.0000E+00  setid=       0
 node=  2353 local x,y,z forces =   -1.0240E+05    0.0000E+00    0.0000E+00  setid=       0
 node=  2359 local x,y,z forces =    1.0240E+05    0.0000E+00    0.0000E+00  setid=       0
 node=  2360 local x,y,z forces =   -4.9736E+04    0.0000E+00    0.0000E+00  setid=       0
 node=  2366 local x,y,z forces =    4.9736E+04    0.0000E+00    0.0000E+00  setid=       0
             force resultants   =   -4.1941E-04   -1.1213E+02   -1.5786E+07
 output at time =   1.20000E-03
 node=    46 local x,y,z forces =    1.1685E-03   -1.7059E+02   -1.8983E+07  setid=       0
 node=  2276 local x,y,z forces =   -5.9769E+04    0.0000E+00    0.0000E+00  setid=       0
 node=  2282 local x,y,z forces =    5.9769E+04    0.0000E+00    0.0000E+00  setid=       0
 node=  2283 local x,y,z forces =   -1.2306E+05    0.0000E+00    0.0000E+00  setid=       0
 node=  2289 local x,y,z forces =    1.2306E+05    0.0000E+00    0.0000E+00  setid=       0
 node=  2290 local x,y,z forces =   -1.2675E+05    0.0000E+00    0.0000E+00  setid=       0
 node=  2296 local x,y,z forces =    1.2675E+05    0.0000E+00    0.0000E+00  setid=       0
 node=  2297 local x,y,z forces =   -1.2749E+05    0.0000E+00    0.0000E+00  setid=       0
 node=  2303 local x,y,z forces =    1.2749E+05    0.0000E+00    0.0000E+00  setid=       0
 node=  2304 local x,y,z forces =   -1.2784E+05    0.0000E+00    0.0000E+00  setid=       0
 node=  2310 local x,y,z forces =    1.2784E+05    0.0000E+00    0.0000E+00  setid=       0
 node=  2311 local x,y,z forces =   -1.2802E+05    0.0000E+00    0.0000E+00  setid=       0
 node=  2317 local x,y,z forces =    1.2802E+05    0.0000E+00    0.0000E+00  setid=       0
 node=  2318 local x,y,z forces =   -1.2810E+05    0.0000E+00    0.0000E+00  setid=       0
 node=  2324 local x,y,z forces =    1.2810E+05    0.0000E+00    0.0000E+00  setid=       0
 node=  2325 local x,y,z forces =   -1.2803E+05    0.0000E+00    0.0000E+00  setid=       0
 node=  2331 local x,y,z forces =    1.2803E+05    0.0000E+00    0.0000E+00  setid=       0
 node=  2332 local x,y,z forces =   -1.2786E+05    0.0000E+00    0.0000E+00  setid=       0
 node=  2338 local x,y,z forces =    1.2786E+05    0.0000E+00    0.0000E+00  setid=       0
 node=  2339 local x,y,z forces =   -1.2752E+05    0.0000E+00    0.0000E+00  setid=       0
 node=  2345 local x,y,z forces =    1.2752E+05    0.0000E+00    0.0000E+00  setid=       0
 node=  2346 local x,y,z forces =   -1.2679E+05    0.0000E+00    0.0000E+00  setid=       0
 node=  2352 local x,y,z forces =    1.2679E+05    0.0000E+00    0.0000E+00  setid=       0
 node=  2353 local x,y,z forces =   -1.2311E+05    0.0000E+00    0.0000E+00  setid=       0
 node=  2359 local x,y,z forces =    1.2311E+05    0.0000E+00    0.0000E+00  setid=       0
 node=  2360 local x,y,z forces =   -5.9795E+04    0.0000E+00    0.0000E+00  setid=       0
 node=  2366 local x,y,z forces =    5.9795E+04    0.0000E+00    0.0000E+00  setid=       0
             force resultants   =   -4.6930E-04   -1.7059E+02   -1.8983E+07
 output at time =   1.40000E-03
 node=    46 local x,y,z forces =    1.4810E-03   -2.4258E+02   -2.2194E+07  setid=       0
 node=  2276 local x,y,z forces =   -6.9853E+04    0.0000E+00    0.0000E+00  setid=       0
 node=  2282 local x,y,z forces =    6.9853E+04    0.0000E+00    0.0000E+00  setid=       0
 node=  2283 local x,y,z forces =   -1.4383E+05    0.0000E+00    0.0000E+00  setid=       0
 node=  2289 local x,y,z forces =    1.4383E+05    0.0000E+00    0.0000E+00  setid=       0
 node=  2290 local x,y,z forces =   -1.4814E+05    0.0000E+00    0.0000E+00  setid=       0
 node=  2296 local x,y,z forces =    1.4814E+05    0.0000E+00    0.0000E+00  setid=       0
 node=  2297 local x,y,z forces =   -1.4900E+05    0.0000E+00    0.0000E+00  setid=       0
 node=  2303 local x,y,z forces =    1.4900E+05    0.0000E+00    0.0000E+00  setid=       0
 node=  2304 local x,y,z forces =   -1.4941E+05    0.0000E+00    0.0000E+00  setid=       0
 node=  2310 local x,y,z forces =    1.4941E+05    0.0000E+00    0.0000E+00  setid=       0
 node=  2311 local x,y,z forces =   -1.4962E+05    0.0000E+00    0.0000E+00  setid=       0
 node=  2317 local x,y,z forces =    1.4962E+05    0.0000E+00    0.0000E+00  setid=       0
 node=  2318 local x,y,z forces =   -1.4973E+05    0.0000E+00    0.0000E+00  setid=       0
 node=  2324 local x,y,z forces =    1.4973E+05    0.0000E+00    0.0000E+00  setid=       0
 node=  2325 local x,y,z forces =   -1.4964E+05    0.0000E+00    0.0000E+00  setid=       0
 node=  2331 local x,y,z forces =    1.4964E+05    0.0000E+00    0.0000E+00  setid=       0
 node=  2332 local x,y,z forces =   -1.4944E+05    0.0000E+00    0.0000E+00  setid=       0
 node=  2338 local x,y,z forces =    1.4944E+05    0.0000E+00    0.0000E+00  setid=       0
 node=  2339 local x,y,z forces =   -1.4905E+05    0.0000E+00    0.0000E+00  setid=       0
 node=  2345 local x,y,z forces =    1.4905E+05    0.0000E+00    0.0000E+00  setid=       0
 node=  2346 local x,y,z forces =   -1.4820E+05    0.0000E+00    0.0000E+00  setid=       0
 node=  2352 local x,y,z forces =    1.4820E+05    0.0000E+00    0.0000E+00  setid=       0
 node=  2353 local x,y,z forces =   -1.4390E+05    0.0000E+00    0.0000E+00  setid=       0
 node=  2359 local x,y,z forces =    1.4390E+05    0.0000E+00    0.0000E+00  setid=       0
 node=  2360 local x,y,z forces =   -6.9893E+04    0.0000E+00    0.0000E+00  setid=       0
 node=  2366 local x,y,z forces =    6.9893E+04    0.0000E+00    0.0000E+00  setid=       0
             force resultants   =   -5.1062E-04   -2.4258E+02   -2.2194E+07
 output at time =   1.60000E-03
 node=    46 local x,y,z forces =    1.8300E-03   -3.2869E+02   -2.5418E+07  setid=       0
 node=  2276 local x,y,z forces =   -7.9970E+04    0.0000E+00    0.0000E+00  setid=       0
 node=  2282 local x,y,z forces =    7.9970E+04    0.0000E+00    0.0000E+00  setid=       0
 node=  2283 local x,y,z forces =   -1.6466E+05    0.0000E+00    0.0000E+00  setid=       0
 node=  2289 local x,y,z forces =    1.6466E+05    0.0000E+00    0.0000E+00  setid=       0
 node=  2290 local x,y,z forces =   -1.6961E+05    0.0000E+00    0.0000E+00  setid=       0
 node=  2296 local x,y,z forces =    1.6961E+05    0.0000E+00    0.0000E+00  setid=       0
 node=  2297 local x,y,z forces =   -1.7059E+05    0.0000E+00    0.0000E+00  setid=       0
 node=  2303 local x,y,z forces =    1.7059E+05    0.0000E+00    0.0000E+00  setid=       0
 node=  2304 local x,y,z forces =   -1.7106E+05    0.0000E+00    0.0000E+00  setid=       0
 node=  2310 local x,y,z forces =    1.7106E+05    0.0000E+00    0.0000E+00  setid=       0
 node=  2311 local x,y,z forces =   -1.7131E+05    0.0000E+00    0.0000E+00  setid=       0
 node=  2317 local x,y,z forces =    1.7131E+05    0.0000E+00    0.0000E+00  setid=       0
 node=  2318 local x,y,z forces =   -1.7143E+05    0.0000E+00    0.0000E+00  setid=       0
 node=  2324 local x,y,z forces =    1.7143E+05    0.0000E+00    0.0000E+00  setid=       0
 node=  2325 local x,y,z forces =   -1.7133E+05    0.0000E+00    0.0000E+00  setid=       0
 node=  2331 local x,y,z forces =    1.7133E+05    0.0000E+00    0.0000E+00  setid=       0
 node=  2332 local x,y,z forces =   -1.7111E+05    0.0000E+00    0.0000E+00  setid=       0
 node=  2338 local x,y,z forces =    1.7111E+05    0.0000E+00    0.0000E+00  setid=       0
 node=  2339 local x,y,z forces =   -1.7066E+05    0.0000E+00    0.0000E+00  setid=       0
 node=  2345 local x,y,z forces =    1.7066E+05    0.0000E+00    0.0000E+00  setid=       0
 node=  2346 local x,y,z forces =   -1.6970E+05    0.0000E+00    0.0000E+00  setid=       0
 node=  2352 local x,y,z forces =    1.6970E+05    0.0000E+00    0.0000E+00  setid=       0
 node=  2353 local x,y,z forces =   -1.6477E+05    0.0000E+00    0.0000E+00  setid=       0
 node=  2359 local x,y,z forces =    1.6477E+05    0.0000E+00    0.0000E+00  setid=       0
 node=  2360 local x,y,z forces =   -8.0029E+04    0.0000E+00    0.0000E+00  setid=       0
 node=  2366 local x,y,z forces =    8.0029E+04    0.0000E+00    0.0000E+00  setid=       0
             force resultants   =   -5.4473E-04   -3.2869E+02   -2.5418E+07
 output at time =   1.80000E-03
 node=    46 local x,y,z forces =    2.2166E-03   -4.2934E+02   -2.8656E+07  setid=       0
 node=  2276 local x,y,z forces =   -9.0120E+04    0.0000E+00    0.0000E+00  setid=       0
 node=  2282 local x,y,z forces =    9.0120E+04    0.0000E+00    0.0000E+00  setid=       0
 node=  2283 local x,y,z forces =   -1.8556E+05    0.0000E+00    0.0000E+00  setid=       0
 node=  2289 local x,y,z forces =    1.8556E+05    0.0000E+00    0.0000E+00  setid=       0
 node=  2290 local x,y,z forces =   -1.9114E+05    0.0000E+00    0.0000E+00  setid=       0
 node=  2296 local x,y,z forces =    1.9114E+05    0.0000E+00    0.0000E+00  setid=       0
 node=  2297 local x,y,z forces =   -1.9226E+05    0.0000E+00    0.0000E+00  setid=       0
 node=  2303 local x,y,z forces =    1.9226E+05    0.0000E+00    0.0000E+00  setid=       0
 node=  2304 local x,y,z forces =   -1.9279E+05    0.0000E+00    0.0000E+00  setid=       0
 node=  2310 local x,y,z forces =    1.9279E+05    0.0000E+00    0.0000E+00  setid=       0
 node=  2311 local x,y,z forces =   -1.9307E+05    0.0000E+00    0.0000E+00  setid=       0
 node=  2317 local x,y,z forces =    1.9307E+05    0.0000E+00    0.0000E+00  setid=       0
 node=  2318 local x,y,z forces =   -1.9321E+05    0.0000E+00    0.0000E+00  setid=       0
 node=  2324 local x,y,z forces =    1.9321E+05    0.0000E+00    0.0000E+00  setid=       0
 node=  2325 local x,y,z forces =   -1.9310E+05    0.0000E+00    0.0000E+00  setid=       0
 node=  2331 local x,y,z forces =    1.9310E+05    0.0000E+00    0.0000E+00  setid=       0
 node=  2332 local x,y,z forces =   -1.9286E+05    0.0000E+00    0.0000E+00  setid=       0
 node=  2338 local x,y,z forces =    1.9286E+05    0.0000E+00    0.0000E+00  setid=       0
 node=  2339 local x,y,z forces =   -1.9235E+05    0.0000E+00    0.0000E+00  setid=       0
 node=  2345 local x,y,z forces =    1.9235E+05    0.0000E+00    0.0000E+00  setid=       0
 node=  2346 local x,y,z forces =   -1.9127E+05    0.0000E+00    0.0000E+00  setid=       0
 node=  2352 local x,y,z forces =    1.9127E+05    0.0000E+00    0.0000E+00  setid=       0
 node=  2353 local x,y,z forces =   -1.8571E+05    0.0000E+00    0.0000E+00  setid=       0
 node=  2359 local x,y,z forces =    1.8571E+05    0.0000E+00    0.0000E+00  setid=       0
 node=  2360 local x,y,z forces =   -9.0205E+04    0.0000E+00    0.0000E+00  setid=       0
 node=  2366 local x,y,z forces =    9.0205E+04    0.0000E+00    0.0000E+00  setid=       0
             force resultants   =   -5.7299E-04   -4.2934E+02   -2.8656E+07
 output at time =   2.00000E-03
 node=    46 local x,y,z forces =    2.6422E-03   -5.4461E+02   -3.1907E+07  setid=       0
 node=  2276 local x,y,z forces =   -1.0030E+05    0.0000E+00    0.0000E+00  setid=       0
 node=  2282 local x,y,z forces =    1.0030E+05    0.0000E+00    0.0000E+00  setid=       0
 node=  2283 local x,y,z forces =   -2.0653E+05    0.0000E+00    0.0000E+00  setid=       0
 node=  2289 local x,y,z forces =    2.0653E+05    0.0000E+00    0.0000E+00  setid=       0
 node=  2290 local x,y,z forces =   -2.1275E+05    0.0000E+00    0.0000E+00  setid=       0
 node=  2296 local x,y,z forces =    2.1275E+05    0.0000E+00    0.0000E+00  setid=       0
 node=  2297 local x,y,z forces =   -2.1399E+05    0.0000E+00    0.0000E+00  setid=       0
 node=  2303 local x,y,z forces =    2.1399E+05    0.0000E+00    0.0000E+00  setid=       0
 node=  2304 local x,y,z forces =   -2.1459E+05    0.0000E+00    0.0000E+00  setid=       0
 node=  2310 local x,y,z forces =    2.1459E+05    0.0000E+00    0.0000E+00  setid=       0
 node=  2311 local x,y,z forces =   -2.1491E+05    0.0000E+00    0.0000E+00  setid=       0
 node=  2317 local x,y,z forces =    2.1491E+05    0.0000E+00    0.0000E+00  setid=       0
 node=  2318 local x,y,z forces =   -2.1507E+05    0.0000E+00    0.0000E+00  setid=       0
 node=  2324 local x,y,z forces =    2.1507E+05    0.0000E+00    0.0000E+00  setid=       0
 node=  2325 local x,y,z forces =   -2.1495E+05    0.0000E+00    0.0000E+00  setid=       0
 node=  2331 local x,y,z forces =    2.1495E+05    0.0000E+00    0.0000E+00  setid=       0
 node=  2332 local x,y,z forces =   -2.1468E+05    0.0000E+00    0.0000E+00  setid=       0
 node=  2338 local x,y,z forces =    2.1468E+05    0.0000E+00    0.0000E+00  setid=       0
 node=  2339 local x,y,z forces =   -2.1412E+05    0.0000E+00    0.0000E+00  setid=       0
 node=  2345 local x,y,z forces =    2.1412E+05    0.0000E+00    0.0000E+00  setid=       0
 node=  2346 local x,y,z forces =   -2.1292E+05    0.0000E+00    0.0000E+00  setid=       0
 node=  2352 local x,y,z forces =    2.1292E+05    0.0000E+00    0.0000E+00  setid=       0
 node=  2353 local x,y,z forces =   -2.0674E+05    0.0000E+00    0.0000E+00  setid=       0
 node=  2359 local x,y,z forces =    2.0674E+05    0.0000E+00    0.0000E+00  setid=       0
 node=  2360 local x,y,z forces =   -1.0042E+05    0.0000E+00    0.0000E+00  setid=       0
 node=  2366 local x,y,z forces =    1.0042E+05    0.0000E+00    0.0000E+00  setid=       0
             force resultants   =   -5.9679E-04   -5.4461E+02   -3.1907E+07
 output at time =   2.20000E-03
 node=    46 local x,y,z forces =    3.1087E-03   -6.7394E+02   -3.5172E+07  setid=       0
 node=  2276 local x,y,z forces =   -1.1051E+05    0.0000E+00    0.0000E+00  setid=       0
 node=  2282 local x,y,z forces =    1.1051E+05    0.0000E+00    0.0000E+00  setid=       0
 node=  2283 local x,y,z forces =   -2.2755E+05    0.0000E+00    0.0000E+00  setid=       0
 node=  2289 local x,y,z forces =    2.2755E+05    0.0000E+00    0.0000E+00  setid=       0
 node=  2290 local x,y,z forces =   -2.3442E+05    0.0000E+00    0.0000E+00  setid=       0
 node=  2296 local x,y,z forces =    2.3442E+05    0.0000E+00    0.0000E+00  setid=       0
 node=  2297 local x,y,z forces =   -2.3580E+05    0.0000E+00    0.0000E+00  setid=       0
 node=  2303 local x,y,z forces =    2.3580E+05    0.0000E+00    0.0000E+00  setid=       0
 node=  2304 local x,y,z forces =   -2.3647E+05    0.0000E+00    0.0000E+00  setid=       0
 node=  2310 local x,y,z forces =    2.3647E+05    0.0000E+00    0.0000E+00  setid=       0
 node=  2311 local x,y,z forces =   -2.3682E+05    0.0000E+00    0.0000E+00  setid=       0
 node=  2317 local x,y,z forces =    2.3682E+05    0.0000E+00    0.0000E+00  setid=       0
 node=  2318 local x,y,z forces =   -2.3700E+05    0.0000E+00    0.0000E+00  setid=       0
 node=  2324 local x,y,z forces =    2.3700E+05    0.0000E+00    0.0000E+00  setid=       0
 node=  2325 local x,y,z forces =   -2.3689E+05    0.0000E+00    0.0000E+00  setid=       0
 node=  2331 local x,y,z forces =    2.3689E+05    0.0000E+00    0.0000E+00  setid=       0
 node=  2332 local x,y,z forces =   -2.3659E+05    0.0000E+00    0.0000E+00  setid=       0
 node=  2338 local x,y,z forces =    2.3659E+05    0.0000E+00    0.0000E+00  setid=       0
 node=  2339 local x,y,z forces =   -2.3598E+05    0.0000E+00    0.0000E+00  setid=       0
 node=  2345 local x,y,z forces =    2.3598E+05    0.0000E+00    0.0000E+00  setid=       0
 node=  2346 local x,y,z forces =   -2.3466E+05    0.0000E+00    0.0000E+00  setid=       0
 node=  2352 local x,y,z forces =    2.3466E+05    0.0000E+00    0.0000E+00  setid=       0
 node=  2353 local x,y,z forces =   -2.2785E+05    0.0000E+00    0.0000E+00  setid=       0
 node=  2359 local x,y,z forces =    2.2785E+05    0.0000E+00    0.0000E+00  setid=       0
 node=  2360 local x,y,z forces =   -1.1068E+05    0.0000E+00    0.0000E+00  setid=       0
 node=  2366 local x,y,z forces =    1.1068E+05    0.0000E+00    0.0000E+00  setid=       0
             force resultants   =   -6.1749E-04   -6.7394E+02   -3.5172E+07
 output at time =   2.40000E-03
 node=    46 local x,y,z forces =    3.6180E-03   -8.1541E+02   -3.8450E+07  setid=       0
 node=  2276 local x,y,z forces =   -1.2075E+05    0.0000E+00    0.0000E+00  setid=       0
 node=  2282 local x,y,z forces =    1.2075E+05    0.0000E+00    0.0000E+00  setid=       0
 node=  2283 local x,y,z forces =   -2.4864E+05    0.0000E+00    0.0000E+00  setid=       0
 node=  2289 local x,y,z forces =    2.4864E+05    0.0000E+00    0.0000E+00  setid=       0
 node=  2290 local x,y,z forces =   -2.5615E+05    0.0000E+00    0.0000E+00  setid=       0
 node=  2296 local x,y,z forces =    2.5615E+05    0.0000E+00    0.0000E+00  setid=       0
 node=  2297 local x,y,z forces =   -2.5767E+05    0.0000E+00    0.0000E+00  setid=       0
 node=  2303 local x,y,z forces =    2.5767E+05    0.0000E+00    0.0000E+00  setid=       0
 node=  2304 local x,y,z forces =   -2.5841E+05    0.0000E+00    0.0000E+00  setid=       0
 node=  2310 local x,y,z forces =    2.5841E+05    0.0000E+00    0.0000E+00  setid=       0
 node=  2311 local x,y,z forces =   -2.5881E+05    0.0000E+00    0.0000E+00  setid=       0
 node=  2317 local x,y,z forces =    2.5881E+05    0.0000E+00    0.0000E+00  setid=       0
 node=  2318 local x,y,z forces =   -2.5902E+05    0.0000E+00    0.0000E+00  setid=       0
 node=  2324 local x,y,z forces =    2.5902E+05    0.0000E+00    0.0000E+00  setid=       0
 node=  2325 local x,y,z forces =   -2.5890E+05    0.0000E+00    0.0000E+00  setid=       0
 node=  2331 local x,y,z forces =    2.5890E+05    0.0000E+00    0.0000E+00  setid=       0
 node=  2332 local x,y,z forces =   -2.5858E+05    0.0000E+00    0.0000E+00  setid=       0
 node=  2338 local x,y,z forces =    2.5858E+05    0.0000E+00    0.0000E+00  setid=       0
 node=  2339 local x,y,z forces =   -2.5793E+05    0.0000E+00    0.0000E+00  setid=       0
 node=  2345 local x,y,z forces =    2.5793E+05    0.0000E+00    0.0000E+00  setid=       0
 node=  2346 local x,y,z forces =   -2.5649E+05    0.0000E+00    0.0000E+00  setid=       0
 node=  2352 local x,y,z forces =    2.5649E+05    0.0000E+00    0.0000E+00  setid=       0
 node=  2353 local x,y,z forces =   -2.4905E+05    0.0000E+00    0.0000E+00  setid=       0
 node=  2359 local x,y,z forces =    2.4905E+05    0.0000E+00    0.0000E+00  setid=       0
 node=  2360 local x,y,z forces =   -1.2098E+05    0.0000E+00    0.0000E+00  setid=       0
 node=  2366 local x,y,z forces =    1.2098E+05    0.0000E+00    0.0000E+00  setid=       0
             force resultants   =   -6.3640E-04   -8.1541E+02   -3.8450E+07
 output at time =   2.60000E-03
 node=    46 local x,y,z forces =    4.1725E-03   -9.6450E+02   -4.1741E+07  setid=       0
 node=  2276 local x,y,z forces =   -1.3101E+05    0.0000E+00    0.0000E+00  setid=       0
 node=  2282 local x,y,z forces =    1.3101E+05    0.0000E+00    0.0000E+00  setid=       0
 node=  2283 local x,y,z forces =   -2.6977E+05    0.0000E+00    0.0000E+00  setid=       0
 node=  2289 local x,y,z forces =    2.6977E+05    0.0000E+00    0.0000E+00  setid=       0
 node=  2290 local x,y,z forces =   -2.7794E+05    0.0000E+00    0.0000E+00  setid=       0
 node=  2296 local x,y,z forces =    2.7794E+05    0.0000E+00    0.0000E+00  setid=       0
 node=  2297 local x,y,z forces =   -2.7960E+05    0.0000E+00    0.0000E+00  setid=       0
 node=  2303 local x,y,z forces =    2.7960E+05    0.0000E+00    0.0000E+00  setid=       0
 node=  2304 local x,y,z forces =   -2.8042E+05    0.0000E+00    0.0000E+00  setid=       0
 node=  2310 local x,y,z forces =    2.8042E+05    0.0000E+00    0.0000E+00  setid=       0
 node=  2311 local x,y,z forces =   -2.8087E+05    0.0000E+00    0.0000E+00  setid=       0
 node=  2317 local x,y,z forces =    2.8087E+05    0.0000E+00    0.0000E+00  setid=       0
 node=  2318 local x,y,z forces =   -2.8111E+05    0.0000E+00    0.0000E+00  setid=       0
 node=  2324 local x,y,z forces =    2.8111E+05    0.0000E+00    0.0000E+00  setid=       0
 node=  2325 local x,y,z forces =   -2.8099E+05    0.0000E+00    0.0000E+00  setid=       0
 node=  2331 local x,y,z forces =    2.8099E+05    0.0000E+00    0.0000E+00  setid=       0
 node=  2332 local x,y,z forces =   -2.8066E+05    0.0000E+00    0.0000E+00  setid=       0
 node=  2338 local x,y,z forces =    2.8066E+05    0.0000E+00    0.0000E+00  setid=       0
 node=  2339 local x,y,z forces =   -2.7996E+05    0.0000E+00    0.0000E+00  setid=       0
 node=  2345 local x,y,z forces =    2.7996E+05    0.0000E+00    0.0000E+00  setid=       0
 node=  2346 local x,y,z forces =   -2.7842E+05    0.0000E+00    0.0000E+00  setid=       0
 node=  2352 local x,y,z forces =    2.7842E+05    0.0000E+00    0.0000E+00  setid=       0
 node=  2353 local x,y,z forces =   -2.7035E+05    0.0000E+00    0.0000E+00  setid=       0
 node=  2359 local x,y,z forces =    2.7035E+05    0.0000E+00    0.0000E+00  setid=       0
 node=  2360 local x,y,z forces =   -1.3133E+05    0.0000E+00    0.0000E+00  setid=       0
 node=  2366 local x,y,z forces =    1.3133E+05    0.0000E+00    0.0000E+00  setid=       0
             force resultants   =   -6.5471E-04   -9.6450E+02   -4.1741E+07
 output at time =   2.80000E-03
 node=    46 local x,y,z forces =    4.7752E-03   -1.1113E+03   -4.5045E+07  setid=       0
 node=  2276 local x,y,z forces =   -1.4128E+05    0.0000E+00    0.0000E+00  setid=       0
 node=  2282 local x,y,z forces =    1.4128E+05    0.0000E+00    0.0000E+00  setid=       0
 node=  2283 local x,y,z forces =   -2.9093E+05    0.0000E+00    0.0000E+00  setid=       0
 node=  2289 local x,y,z forces =    2.9093E+05    0.0000E+00    0.0000E+00  setid=       0
 node=  2290 local x,y,z forces =   -2.9978E+05    0.0000E+00    0.0000E+00  setid=       0
 node=  2296 local x,y,z forces =    2.9978E+05    0.0000E+00    0.0000E+00  setid=       0
 node=  2297 local x,y,z forces =   -3.0159E+05    0.0000E+00    0.0000E+00  setid=       0
 node=  2303 local x,y,z forces =    3.0159E+05    0.0000E+00    0.0000E+00  setid=       0
 node=  2304 local x,y,z forces =   -3.0249E+05    0.0000E+00    0.0000E+00  setid=       0
 node=  2310 local x,y,z forces =    3.0249E+05    0.0000E+00    0.0000E+00  setid=       0
 node=  2311 local x,y,z forces =   -3.0299E+05    0.0000E+00    0.0000E+00  setid=       0
 node=  2317 local x,y,z forces =    3.0299E+05    0.0000E+00    0.0000E+00  setid=       0
 node=  2318 local x,y,z forces =   -3.0327E+05    0.0000E+00    0.0000E+00  setid=       0
 node=  2324 local x,y,z forces =    3.0327E+05    0.0000E+00    0.0000E+00  setid=       0
 node=  2325 local x,y,z forces =   -3.0316E+05    0.0000E+00    0.0000E+00  setid=       0
 node=  2331 local x,y,z forces =    3.0316E+05    0.0000E+00    0.0000E+00  setid=       0
 node=  2332 local x,y,z forces =   -3.0283E+05    0.0000E+00    0.0000E+00  setid=       0
 node=  2338 local x,y,z forces =    3.0283E+05    0.0000E+00    0.0000E+00  setid=       0
 node=  2339 local x,y,z forces =   -3.0209E+05    0.0000E+00    0.0000E+00  setid=       0
 node=  2345 local x,y,z forces =    3.0209E+05    0.0000E+00    0.0000E+00  setid=       0
 node=  2346 local x,y,z forces =   -3.0045E+05    0.0000E+00    0.0000E+00  setid=       0
 node=  2352 local x,y,z forces =    3.0045E+05    0.0000E+00    0.0000E+00  setid=       0
 node=  2353 local x,y,z forces =   -2.9175E+05    0.0000E+00    0.0000E+00  setid=       0
 node=  2359 local x,y,z forces =    2.9175E+05    0.0000E+00    0.0000E+00  setid=       0
 node=  2360 local x,y,z forces =   -1.4174E+05    0.0000E+00    0.0000E+00  setid=       0
 node=  2366 local x,y,z forces =    1.4174E+05    0.0000E+00    0.0000E+00  setid=       0
             force resultants   =   -6.7336E-04   -1.1113E+03   -4.5045E+07
 output at time =   3.00000E-03
 node=    46 local x,y,z forces =    5.4294E-03   -1.2346E+03   -4.8362E+07  setid=       0
 node=  2276 local x,y,z forces =   -1.5155E+05    0.0000E+00    0.0000E+00  setid=       0
 node=  2282 local x,y,z forces =    1.5155E+05    0.0000E+00    0.0000E+00  setid=       0
 node=  2283 local x,y,z forces =   -3.1210E+05    0.0000E+00    0.0000E+00  setid=       0
 node=  2289 local x,y,z forces =    3.1210E+05    0.0000E+00    0.0000E+00  setid=       0
 node=  2290 local x,y,z forces =   -3.2163E+05    0.0000E+00    0.0000E+00  setid=       0
 node=  2296 local x,y,z forces =    3.2163E+05    0.0000E+00    0.0000E+00  setid=       0
 node=  2297 local x,y,z forces =   -3.2361E+05    0.0000E+00    0.0000E+00  setid=       0
 node=  2303 local x,y,z forces =    3.2361E+05    0.0000E+00    0.0000E+00  setid=       0
 node=  2304 local x,y,z forces =   -3.2461E+05    0.0000E+00    0.0000E+00  setid=       0
 node=  2310 local x,y,z forces =    3.2461E+05    0.0000E+00    0.0000E+00  setid=       0
 node=  2311 local x,y,z forces =   -3.2518E+05    0.0000E+00    0.0000E+00  setid=       0
 node=  2317 local x,y,z forces =    3.2518E+05    0.0000E+00    0.0000E+00  setid=       0
 node=  2318 local x,y,z forces =   -3.2551E+05    0.0000E+00    0.0000E+00  setid=       0
 node=  2324 local x,y,z forces =    3.2551E+05    0.0000E+00    0.0000E+00  setid=       0
 node=  2325 local x,y,z forces =   -3.2542E+05    0.0000E+00    0.0000E+00  setid=       0
 node=  2331 local x,y,z forces =    3.2542E+05    0.0000E+00    0.0000E+00  setid=       0
 node=  2332 local x,y,z forces =   -3.2510E+05    0.0000E+00    0.0000E+00  setid=       0
 node=  2338 local x,y,z forces =    3.2510E+05    0.0000E+00    0.0000E+00  setid=       0
 node=  2339 local x,y,z forces =   -3.2434E+05    0.0000E+00    0.0000E+00  setid=       0
 node=  2345 local x,y,z forces =    3.2434E+05    0.0000E+00    0.0000E+00  setid=       0
 node=  2346 local x,y,z forces =   -3.2260E+05    0.0000E+00    0.0000E+00  setid=       0
 node=  2352 local x,y,z forces =    3.2260E+05    0.0000E+00    0.0000E+00  setid=       0
 node=  2353 local x,y,z forces =   -3.1329E+05    0.0000E+00    0.0000E+00  setid=       0
 node=  2359 local x,y,z forces =    3.1329E+05    0.0000E+00    0.0000E+00  setid=       0
 node=  2360 local x,y,z forces =   -1.5221E+05    0.0000E+00    0.0000E+00  setid=       0
 node=  2366 local x,y,z forces =    1.5221E+05    0.0000E+00    0.0000E+00  setid=       0
             force resultants   =   -6.9293E-04   -1.2346E+03   -4.8362E+07
 output at time =   3.20000E-03
 node=    46 local x,y,z forces =    6.1398E-03   -1.2872E+03   -5.1693E+07  setid=       0
 node=  2276 local x,y,z forces =   -1.6180E+05    0.0000E+00    0.0000E+00  setid=       0
 node=  2282 local x,y,z forces =    1.6180E+05    0.0000E+00    0.0000E+00  setid=       0
 node=  2283 local x,y,z forces =   -3.3324E+05    0.0000E+00    0.0000E+00  setid=       0
 node=  2289 local x,y,z forces =    3.3324E+05    0.0000E+00    0.0000E+00  setid=       0
 node=  2290 local x,y,z forces =   -3.4348E+05    0.0000E+00    0.0000E+00  setid=       0
 node=  2296 local x,y,z forces =    3.4348E+05    0.0000E+00    0.0000E+00  setid=       0
 node=  2297 local x,y,z forces =   -3.4564E+05    0.0000E+00    0.0000E+00  setid=       0
 node=  2303 local x,y,z forces =    3.4564E+05    0.0000E+00    0.0000E+00  setid=       0
 node=  2304 local x,y,z forces =   -3.4676E+05    0.0000E+00    0.0000E+00  setid=       0
 node=  2310 local x,y,z forces =    3.4676E+05    0.0000E+00    0.0000E+00  setid=       0
 node=  2311 local x,y,z forces =   -3.4742E+05    0.0000E+00    0.0000E+00  setid=       0
 node=  2317 local x,y,z forces =    3.4742E+05    0.0000E+00    0.0000E+00  setid=       0
 node=  2318 local x,y,z forces =   -3.4782E+05    0.0000E+00    0.0000E+00  setid=       0
 node=  2324 local x,y,z forces =    3.4782E+05    0.0000E+00    0.0000E+00  setid=       0
 node=  2325 local x,y,z forces =   -3.4778E+05    0.0000E+00    0.0000E+00  setid=       0
 node=  2331 local x,y,z forces =    3.4778E+05    0.0000E+00    0.0000E+00  setid=       0
 node=  2332 local x,y,z forces =   -3.4748E+05    0.0000E+00    0.0000E+00  setid=       0
 node=  2338 local x,y,z forces =    3.4748E+05    0.0000E+00    0.0000E+00  setid=       0
 node=  2339 local x,y,z forces =   -3.4672E+05    0.0000E+00    0.0000E+00  setid=       0
 node=  2345 local x,y,z forces =    3.4672E+05    0.0000E+00    0.0000E+00  setid=       0
 node=  2346 local x,y,z forces =   -3.4491E+05    0.0000E+00    0.0000E+00  setid=       0
 node=  2352 local x,y,z forces =    3.4491E+05    0.0000E+00    0.0000E+00  setid=       0
 node=  2353 local x,y,z forces =   -3.3500E+05    0.0000E+00    0.0000E+00  setid=       0
 node=  2359 local x,y,z forces =    3.3500E+05    0.0000E+00    0.0000E+00  setid=       0
 node=  2360 local x,y,z forces =   -1.6277E+05    0.0000E+00    0.0000E+00  setid=       0
 node=  2366 local x,y,z forces =    1.6277E+05    0.0000E+00    0.0000E+00  setid=       0
             force resultants   =   -7.1341E-04   -1.2872E+03   -5.1693E+07
 output at time =   3.40000E-03
 node=    46 local x,y,z forces =    6.9120E-03   -1.1598E+03   -5.5036E+07  setid=       0
 node=  2276 local x,y,z forces =   -1.7198E+05    0.0000E+00    0.0000E+00  setid=       0
 node=  2282 local x,y,z forces =    1.7198E+05    0.0000E+00    0.0000E+00  setid=       0
 node=  2283 local x,y,z forces =   -3.5427E+05    0.0000E+00    0.0000E+00  setid=       0
 node=  2289 local x,y,z forces =    3.5427E+05    0.0000E+00    0.0000E+00  setid=       0
 node=  2290 local x,y,z forces =   -3.6525E+05    0.0000E+00    0.0000E+00  setid=       0
 node=  2296 local x,y,z forces =    3.6525E+05    0.0000E+00    0.0000E+00  setid=       0
 node=  2297 local x,y,z forces =   -3.6763E+05    0.0000E+00    0.0000E+00  setid=       0
 node=  2303 local x,y,z forces =    3.6763E+05    0.0000E+00    0.0000E+00  setid=       0
 node=  2304 local x,y,z forces =   -3.6891E+05    0.0000E+00    0.0000E+00  setid=       0
 node=  2310 local x,y,z forces =    3.6891E+05    0.0000E+00    0.0000E+00  setid=       0
 node=  2311 local x,y,z forces =   -3.6970E+05    0.0000E+00    0.0000E+00  setid=       0
 node=  2317 local x,y,z forces =    3.6970E+05    0.0000E+00    0.0000E+00  setid=       0
 node=  2318 local x,y,z forces =   -3.7021E+05    0.0000E+00    0.0000E+00  setid=       0
 node=  2324 local x,y,z forces =    3.7021E+05    0.0000E+00    0.0000E+00  setid=       0
 node=  2325 local x,y,z forces =   -3.7025E+05    0.0000E+00    0.0000E+00  setid=       0
 node=  2331 local x,y,z forces =    3.7025E+05    0.0000E+00    0.0000E+00  setid=       0
 node=  2332 local x,y,z forces =   -3.7001E+05    0.0000E+00    0.0000E+00  setid=       0
 node=  2338 local x,y,z forces =    3.7001E+05    0.0000E+00    0.0000E+00  setid=       0
 node=  2339 local x,y,z forces =   -3.6928E+05    0.0000E+00    0.0000E+00  setid=       0
 node=  2345 local x,y,z forces =    3.6928E+05    0.0000E+00    0.0000E+00  setid=       0
 node=  2346 local x,y,z forces =   -3.6744E+05    0.0000E+00    0.0000E+00  setid=       0
 node=  2352 local x,y,z forces =    3.6744E+05    0.0000E+00    0.0000E+00  setid=       0
 node=  2353 local x,y,z forces =   -3.5696E+05    0.0000E+00    0.0000E+00  setid=       0
 node=  2359 local x,y,z forces =    3.5696E+05    0.0000E+00    0.0000E+00  setid=       0
 node=  2360 local x,y,z forces =   -1.7348E+05    0.0000E+00    0.0000E+00  setid=       0
 node=  2366 local x,y,z forces =    1.7348E+05    0.0000E+00    0.0000E+00  setid=       0
             force resultants   =   -7.3389E-04   -1.1598E+03   -5.5036E+07
 output at time =   3.60000E-03
 node=    46 local x,y,z forces =   -1.3893E-03    2.9431E+02   -5.7088E+07  setid=       0
 node=  2276 local x,y,z forces =   -5.5342E+04    0.0000E+00    0.0000E+00  setid=       0
 node=  2282 local x,y,z forces =    5.5342E+04    0.0000E+00    0.0000E+00  setid=       0
 node=  2283 local x,y,z forces =   -1.4606E+05    0.0000E+00    0.0000E+00  setid=       0
 node=  2289 local x,y,z forces =    1.4606E+05    0.0000E+00    0.0000E+00  setid=       0
 node=  2290 local x,y,z forces =   -1.9858E+05    0.0000E+00    0.0000E+00  setid=       0
 node=  2296 local x,y,z forces =    1.9858E+05    0.0000E+00    0.0000E+00  setid=       0
 node=  2297 local x,y,z forces =   -2.4606E+05    0.0000E+00    0.0000E+00  setid=       0
 node=  2303 local x,y,z forces =    2.4606E+05    0.0000E+00    0.0000E+00  setid=       0
 node=  2304 local x,y,z forces =   -2.9250E+05    0.0000E+00    0.0000E+00  setid=       0
 node=  2310 local x,y,z forces =    2.9250E+05    0.0000E+00    0.0000E+00  setid=       0
 node=  2311 local x,y,z forces =   -3.3843E+05    0.0000E+00    0.0000E+00  setid=       0
 node=  2317 local x,y,z forces =    3.3843E+05    0.0000E+00    0.0000E+00  setid=       0
 node=  2318 local x,y,z forces =   -3.8405E+05    0.0000E+00    0.0000E+00  setid=       0
 node=  2324 local x,y,z forces =    3.8405E+05    0.0000E+00    0.0000E+00  setid=       0
 node=  2325 local x,y,z forces =   -4.2915E+05    0.0000E+00    0.0000E+00  setid=       0
 node=  2331 local x,y,z forces =    4.2915E+05    0.0000E+00    0.0000E+00  setid=       0
 node=  2332 local x,y,z forces =   -4.7395E+05    0.0000E+00    0.0000E+00  setid=       0
 node=  2338 local x,y,z forces =    4.7395E+05    0.0000E+00    0.0000E+00  setid=       0
 node=  2339 local x,y,z forces =   -5.1819E+05    0.0000E+00    0.0000E+00  setid=       0
 node=  2345 local x,y,z forces =    5.1819E+05    0.0000E+00    0.0000E+00  setid=       0
 node=  2346 local x,y,z forces =   -5.6114E+05    0.0000E+00    0.0000E+00  setid=       0
 node=  2352 local x,y,z forces =    5.6114E+05    0.0000E+00    0.0000E+00  setid=       0
 node=  2353 local x,y,z forces =   -5.9116E+05    0.0000E+00    0.0000E+00  setid=       0
 node=  2359 local x,y,z forces =    5.9116E+05    0.0000E+00    0.0000E+00  setid=       0
 node=  2360 local x,y,z forces =   -3.0279E+05    0.0000E+00    0.0000E+00  setid=       0
 node=  2366 local x,y,z forces =    3.0279E+05    0.0000E+00    0.0000E+00  setid=       0
             force resultants   =   -9.5714E-03    2.9431E+02   -5.7088E+07
 output at time =   3.80000E-03
 node=    46 local x,y,z forces =    3.4961E-03    1.6463E+02   -5.7074E+07  setid=       0
 node=  2276 local x,y,z forces =    5.5663E+04    0.0000E+00    0.0000E+00  setid=       0
 node=  2282 local x,y,z forces =   -5.5663E+04    0.0000E+00    0.0000E+00  setid=       0
 node=  2283 local x,y,z forces =    5.3788E+04    0.0000E+00    0.0000E+00  setid=       0
 node=  2289 local x,y,z forces =   -5.3788E+04    0.0000E+00    0.0000E+00  setid=       0
 node=  2290 local x,y,z forces =   -3.5967E+04    0.0000E+00    0.0000E+00  setid=       0
 node=  2296 local x,y,z forces =    3.5967E+04    0.0000E+00    0.0000E+00  setid=       0
 node=  2297 local x,y,z forces =   -1.2413E+05    0.0000E+00    0.0000E+00  setid=       0
 node=  2303 local x,y,z forces =    1.2413E+05    0.0000E+00    0.0000E+00  setid=       0
 node=  2304 local x,y,z forces =   -2.1132E+05    0.0000E+00    0.0000E+00  setid=       0
 node=  2310 local x,y,z forces =    2.1132E+05    0.0000E+00    0.0000E+00  setid=       0
 node=  2311 local x,y,z forces =   -2.9797E+05    0.0000E+00    0.0000E+00  setid=       0
 node=  2317 local x,y,z forces =    2.9797E+05    0.0000E+00    0.0000E+00  setid=       0
 node=  2318 local x,y,z forces =   -3.8425E+05    0.0000E+00    0.0000E+00  setid=       0
 node=  2324 local x,y,z forces =    3.8425E+05    0.0000E+00    0.0000E+00  setid=       0
 node=  2325 local x,y,z forces =   -4.6995E+05    0.0000E+00    0.0000E+00  setid=       0
 node=  2331 local x,y,z forces =    4.6995E+05    0.0000E+00    0.0000E+00  setid=       0
 node=  2332 local x,y,z forces =   -5.5527E+05    0.0000E+00    0.0000E+00  setid=       0
 node=  2338 local x,y,z forces =    5.5527E+05    0.0000E+00    0.0000E+00  setid=       0
 node=  2339 local x,y,z forces =   -6.3997E+05    0.0000E+00    0.0000E+00  setid=       0
 node=  2345 local x,y,z forces =    6.3997E+05    0.0000E+00    0.0000E+00  setid=       0
 node=  2346 local x,y,z forces =   -7.2322E+05    0.0000E+00    0.0000E+00  setid=       0
 node=  2352 local x,y,z forces =    7.2322E+05    0.0000E+00    0.0000E+00  setid=       0
 node=  2353 local x,y,z forces =   -7.8990E+05    0.0000E+00    0.0000E+00  setid=       0
 node=  2359 local x,y,z forces =    7.8990E+05    0.0000E+00    0.0000E+00  setid=       0
 node=  2360 local x,y,z forces =   -4.1340E+05    0.0000E+00    0.0000E+00  setid=       0
 node=  2366 local x,y,z forces =    4.1340E+05    0.0000E+00    0.0000E+00  setid=       0
             force resultants   =   -4.4686E-03    1.6463E+02   -5.7074E+07
 output at time =   4.00000E-03
 node=    46 local x,y,z forces =    3.5394E-03    3.1913E+02   -5.7093E+07  setid=       0
 node=  2276 local x,y,z forces =    1.2842E+05    0.0000E+00    0.0000E+00  setid=       0
 node=  2282 local x,y,z forces =   -1.2842E+05    0.0000E+00    0.0000E+00  setid=       0
 node=  2283 local x,y,z forces =    1.8481E+05    0.0000E+00    0.0000E+00  setid=       0
 node=  2289 local x,y,z forces =   -1.8481E+05    0.0000E+00    0.0000E+00  setid=       0
 node=  2290 local x,y,z forces =    7.0534E+04    0.0000E+00    0.0000E+00  setid=       0
 node=  2296 local x,y,z forces =   -7.0534E+04    0.0000E+00    0.0000E+00  setid=       0
 node=  2297 local x,y,z forces =   -4.4365E+04    0.0000E+00    0.0000E+00  setid=       0
 node=  2303 local x,y,z forces =    4.4365E+04    0.0000E+00    0.0000E+00  setid=       0
 node=  2304 local x,y,z forces =   -1.5834E+05    0.0000E+00    0.0000E+00  setid=       0
 node=  2310 local x,y,z forces =    1.5834E+05    0.0000E+00    0.0000E+00  setid=       0
 node=  2311 local x,y,z forces =   -2.7172E+05    0.0000E+00    0.0000E+00  setid=       0
 node=  2317 local x,y,z forces =    2.7172E+05    0.0000E+00    0.0000E+00  setid=       0
 node=  2318 local x,y,z forces =   -3.8467E+05    0.0000E+00    0.0000E+00  setid=       0
 node=  2324 local x,y,z forces =    3.8467E+05    0.0000E+00    0.0000E+00  setid=       0
 node=  2325 local x,y,z forces =   -4.9698E+05    0.0000E+00    0.0000E+00  setid=       0
 node=  2331 local x,y,z forces =    4.9698E+05    0.0000E+00    0.0000E+00  setid=       0
 node=  2332 local x,y,z forces =   -6.0883E+05    0.0000E+00    0.0000E+00  setid=       0
 node=  2338 local x,y,z forces =    6.0883E+05    0.0000E+00    0.0000E+00  setid=       0
 node=  2339 local x,y,z forces =   -7.2001E+05    0.0000E+00    0.0000E+00  setid=       0
 node=  2345 local x,y,z forces =    7.2001E+05    0.0000E+00    0.0000E+00  setid=       0
 node=  2346 local x,y,z forces =   -8.2962E+05    0.0000E+00    0.0000E+00  setid=       0
 node=  2352 local x,y,z forces =    8.2962E+05    0.0000E+00    0.0000E+00  setid=       0
 node=  2353 local x,y,z forces =   -9.2022E+05    0.0000E+00    0.0000E+00  setid=       0
 node=  2359 local x,y,z forces =    9.2022E+05    0.0000E+00    0.0000E+00  setid=       0
 node=  2360 local x,y,z forces =   -4.8595E+05    0.0000E+00    0.0000E+00  setid=       0
 node=  2366 local x,y,z forces =    4.8595E+05    0.0000E+00    0.0000E+00  setid=       0
             force resultants   =   -4.1781E-03    3.1913E+02   -5.7093E+07
 output at time =   4.20000E-03
 node=    46 local x,y,z forces =    3.2141E-03    8.4904E+02   -5.7109E+07  setid=       0
 node=  2276 local x,y,z forces =    1.8708E+05    0.0000E+00    0.0000E+00  setid=       0
 node=  2282 local x,y,z forces =   -1.8708E+05    0.0000E+00    0.0000E+00  setid=       0
 node=  2283 local x,y,z forces =    2.9048E+05    0.0000E+00    0.0000E+00  setid=       0
 node=  2289 local x,y,z forces =   -2.9048E+05    0.0000E+00    0.0000E+00  setid=       0
 node=  2290 local x,y,z forces =    1.5639E+05    0.0000E+00    0.0000E+00  setid=       0
 node=  2296 local x,y,z forces =   -1.5639E+05    0.0000E+00    0.0000E+00  setid=       0
 node=  2297 local x,y,z forces =    1.9904E+04    0.0000E+00    0.0000E+00  setid=       0
 node=  2303 local x,y,z forces =   -1.9904E+04    0.0000E+00    0.0000E+00  setid=       0
 node=  2304 local x,y,z forces =   -1.1567E+05    0.0000E+00    0.0000E+00  setid=       0
 node=  2310 local x,y,z forces =    1.1567E+05    0.0000E+00    0.0000E+00  setid=       0
 node=  2311 local x,y,z forces =   -2.5062E+05    0.0000E+00    0.0000E+00  setid=       0
 node=  2317 local x,y,z forces =    2.5062E+05    0.0000E+00    0.0000E+00  setid=       0
 node=  2318 local x,y,z forces =   -3.8507E+05    0.0000E+00    0.0000E+00  setid=       0
 node=  2324 local x,y,z forces =    3.8507E+05    0.0000E+00    0.0000E+00  setid=       0
 node=  2325 local x,y,z forces =   -5.1882E+05    0.0000E+00    0.0000E+00  setid=       0
 node=  2331 local x,y,z forces =    5.1882E+05    0.0000E+00    0.0000E+00  setid=       0
 node=  2332 local x,y,z forces =   -6.5204E+05    0.0000E+00    0.0000E+00  setid=       0
 node=  2338 local x,y,z forces =    6.5204E+05    0.0000E+00    0.0000E+00  setid=       0
 node=  2339 local x,y,z forces =   -7.8453E+05    0.0000E+00    0.0000E+00  setid=       0
 node=  2345 local x,y,z forces =    7.8453E+05    0.0000E+00    0.0000E+00  setid=       0
 node=  2346 local x,y,z forces =   -9.1535E+05    0.0000E+00    0.0000E+00  setid=       0
 node=  2352 local x,y,z forces =    9.1535E+05    0.0000E+00    0.0000E+00  setid=       0
 node=  2353 local x,y,z forces =   -1.0252E+06    0.0000E+00    0.0000E+00  setid=       0
 node=  2359 local x,y,z forces =    1.0252E+06    0.0000E+00    0.0000E+00  setid=       0
 node=  2360 local x,y,z forces =   -5.4439E+05    0.0000E+00    0.0000E+00  setid=       0
 node=  2366 local x,y,z forces =    5.4439E+05    0.0000E+00    0.0000E+00  setid=       0
             force resultants   =   -4.2673E-03    8.4904E+02   -5.7109E+07
 output at time =   4.40000E-03
 node=    46 local x,y,z forces =    3.2304E-03    5.8719E+02   -5.7124E+07  setid=       0
 node=  2276 local x,y,z forces =    2.3763E+05    0.0000E+00    0.0000E+00  setid=       0
 node=  2282 local x,y,z forces =   -2.3763E+05    0.0000E+00    0.0000E+00  setid=       0
 node=  2283 local x,y,z forces =    3.8157E+05    0.0000E+00    0.0000E+00  setid=       0
 node=  2289 local x,y,z forces =   -3.8157E+05    0.0000E+00    0.0000E+00  setid=       0
 node=  2290 local x,y,z forces =    2.3037E+05    0.0000E+00    0.0000E+00  setid=       0
 node=  2296 local x,y,z forces =   -2.3037E+05    0.0000E+00    0.0000E+00  setid=       0
 node=  2297 local x,y,z forces =    7.5263E+04    0.0000E+00    0.0000E+00  setid=       0
 node=  2303 local x,y,z forces =   -7.5263E+04    0.0000E+00    0.0000E+00  setid=       0
 node=  2304 local x,y,z forces =   -7.8948E+04    0.0000E+00    0.0000E+00  setid=       0
 node=  2310 local x,y,z forces =    7.8948E+04    0.0000E+00    0.0000E+00  setid=       0
 node=  2311 local x,y,z forces =   -2.3249E+05    0.0000E+00    0.0000E+00  setid=       0
 node=  2317 local x,y,z forces =    2.3249E+05    0.0000E+00    0.0000E+00  setid=       0
 node=  2318 local x,y,z forces =   -3.8546E+05    0.0000E+00    0.0000E+00  setid=       0
 node=  2324 local x,y,z forces =    3.8546E+05    0.0000E+00    0.0000E+00  setid=       0
 node=  2325 local x,y,z forces =   -5.3767E+05    0.0000E+00    0.0000E+00  setid=       0
 node=  2331 local x,y,z forces =    5.3767E+05    0.0000E+00    0.0000E+00  setid=       0
 node=  2332 local x,y,z forces =   -6.8929E+05    0.0000E+00    0.0000E+00  setid=       0
 node=  2338 local x,y,z forces =    6.8929E+05    0.0000E+00    0.0000E+00  setid=       0
 node=  2339 local x,y,z forces =   -8.4011E+05    0.0000E+00    0.0000E+00  setid=       0
 node=  2345 local x,y,z forces =    8.4011E+05    0.0000E+00    0.0000E+00  setid=       0
 node=  2346 local x,y,z forces =   -9.8917E+05    0.0000E+00    0.0000E+00  setid=       0
 node=  2352 local x,y,z forces =    9.8917E+05    0.0000E+00    0.0000E+00  setid=       0
 node=  2353 local x,y,z forces =   -1.1155E+06    0.0000E+00    0.0000E+00  setid=       0
 node=  2359 local x,y,z forces =    1.1155E+06    0.0000E+00    0.0000E+00  setid=       0
 node=  2360 local x,y,z forces =   -5.9472E+05    0.0000E+00    0.0000E+00  setid=       0
 node=  2366 local x,y,z forces =    5.9472E+05    0.0000E+00    0.0000E+00  setid=       0
             force resultants   =   -3.9816E-03    5.8719E+02   -5.7124E+07
 output at time =   4.60000E-03
 node=    46 local x,y,z forces =    2.8625E-03    1.3098E+03   -5.7139E+07  setid=       0
 node=  2276 local x,y,z forces =    2.8270E+05    0.0000E+00    0.0000E+00  setid=       0
 node=  2282 local x,y,z forces =   -2.8270E+05    0.0000E+00    0.0000E+00  setid=       0
 node=  2283 local x,y,z forces =    4.6280E+05    0.0000E+00    0.0000E+00  setid=       0
 node=  2289 local x,y,z forces =   -4.6280E+05    0.0000E+00    0.0000E+00  setid=       0
 node=  2290 local x,y,z forces =    2.9632E+05    0.0000E+00    0.0000E+00  setid=       0
 node=  2296 local x,y,z forces =   -2.9632E+05    0.0000E+00    0.0000E+00  setid=       0
 node=  2297 local x,y,z forces =    1.2460E+05    0.0000E+00    0.0000E+00  setid=       0
 node=  2303 local x,y,z forces =   -1.2460E+05    0.0000E+00    0.0000E+00  setid=       0
 node=  2304 local x,y,z forces =   -4.6243E+04    0.0000E+00    0.0000E+00  setid=       0
 node=  2310 local x,y,z forces =    4.6243E+04    0.0000E+00    0.0000E+00  setid=       0
 node=  2311 local x,y,z forces =   -2.1636E+05    0.0000E+00    0.0000E+00  setid=       0
 node=  2317 local x,y,z forces =    2.1636E+05    0.0000E+00    0.0000E+00  setid=       0
 node=  2318 local x,y,z forces =   -3.8586E+05    0.0000E+00    0.0000E+00  setid=       0
 node=  2324 local x,y,z forces =    3.8586E+05    0.0000E+00    0.0000E+00  setid=       0
 node=  2325 local x,y,z forces =   -5.5452E+05    0.0000E+00    0.0000E+00  setid=       0
 node=  2331 local x,y,z forces =    5.5452E+05    0.0000E+00    0.0000E+00  setid=       0
 node=  2332 local x,y,z forces =   -7.2253E+05    0.0000E+00    0.0000E+00  setid=       0
 node=  2338 local x,y,z forces =    7.2253E+05    0.0000E+00    0.0000E+00  setid=       0
 node=  2339 local x,y,z forces =   -8.8968E+05    0.0000E+00    0.0000E+00  setid=       0
 node=  2345 local x,y,z forces =    8.8968E+05    0.0000E+00    0.0000E+00  setid=       0
 node=  2346 local x,y,z forces =   -1.0550E+06    0.0000E+00    0.0000E+00  setid=       0
 node=  2352 local x,y,z forces =    1.0550E+06    0.0000E+00    0.0000E+00  setid=       0
 node=  2353 local x,y,z forces =   -1.1960E+06    0.0000E+00    0.0000E+00  setid=       0
 node=  2359 local x,y,z forces =    1.1960E+06    0.0000E+00    0.0000E+00  setid=       0
 node=  2360 local x,y,z forces =   -6.3957E+05    0.0000E+00    0.0000E+00  setid=       0
 node=  2366 local x,y,z forces =    6.3957E+05    0.0000E+00    0.0000E+00  setid=       0
             force resultants   =   -4.1209E-03    1.3098E+03   -5.7139E+07
 output at time =   4.80000E-03
 node=    46 local x,y,z forces =    2.8118E-03    1.1833E+03   -5.7152E+07  setid=       0
 node=  2276 local x,y,z forces =    3.2381E+05    0.0000E+00    0.0000E+00  setid=       0
 node=  2282 local x,y,z forces =   -3.2381E+05    0.0000E+00    0.0000E+00  setid=       0
 node=  2283 local x,y,z forces =    5.3690E+05    0.0000E+00    0.0000E+00  setid=       0
 node=  2289 local x,y,z forces =   -5.3690E+05    0.0000E+00    0.0000E+00  setid=       0
 node=  2290 local x,y,z forces =    3.5647E+05    0.0000E+00    0.0000E+00  setid=       0
 node=  2296 local x,y,z forces =   -3.5647E+05    0.0000E+00    0.0000E+00  setid=       0
 node=  2297 local x,y,z forces =    1.6957E+05    0.0000E+00    0.0000E+00  setid=       0
 node=  2303 local x,y,z forces =   -1.6957E+05    0.0000E+00    0.0000E+00  setid=       0
 node=  2304 local x,y,z forces =   -1.6435E+04    0.0000E+00    0.0000E+00  setid=       0
 node=  2310 local x,y,z forces =    1.6435E+04    0.0000E+00    0.0000E+00  setid=       0
 node=  2311 local x,y,z forces =   -2.0168E+05    0.0000E+00    0.0000E+00  setid=       0
 node=  2317 local x,y,z forces =    2.0168E+05    0.0000E+00    0.0000E+00  setid=       0
 node=  2318 local x,y,z forces =   -3.8624E+05    0.0000E+00    0.0000E+00  setid=       0
 node=  2324 local x,y,z forces =    3.8624E+05    0.0000E+00    0.0000E+00  setid=       0
 node=  2325 local x,y,z forces =   -5.6990E+05    0.0000E+00    0.0000E+00  setid=       0
 node=  2331 local x,y,z forces =    5.6990E+05    0.0000E+00    0.0000E+00  setid=       0
 node=  2332 local x,y,z forces =   -7.5284E+05    0.0000E+00    0.0000E+00  setid=       0
 node=  2338 local x,y,z forces =    7.5284E+05    0.0000E+00    0.0000E+00  setid=       0
 node=  2339 local x,y,z forces =   -9.3486E+05    0.0000E+00    0.0000E+00  setid=       0
 node=  2345 local x,y,z forces =    9.3486E+05    0.0000E+00    0.0000E+00  setid=       0
 node=  2346 local x,y,z forces =   -1.1150E+06    0.0000E+00    0.0000E+00  setid=       0
 node=  2352 local x,y,z forces =    1.1150E+06    0.0000E+00    0.0000E+00  setid=       0
 node=  2353 local x,y,z forces =   -1.2693E+06    0.0000E+00    0.0000E+00  setid=       0
 node=  2359 local x,y,z forces =    1.2693E+06    0.0000E+00    0.0000E+00  setid=       0
 node=  2360 local x,y,z forces =   -6.8044E+05    0.0000E+00    0.0000E+00  setid=       0
 node=  2366 local x,y,z forces =    6.8044E+05    0.0000E+00    0.0000E+00  setid=       0
             force resultants   =   -3.9019E-03    1.1833E+03   -5.7152E+07
 output at time =   5.00000E-03
 node=    46 local x,y,z forces =    2.7385E-03    1.0892E+03   -5.7166E+07  setid=       0
 node=  2276 local x,y,z forces =    3.6183E+05    0.0000E+00    0.0000E+00  setid=       0
 node=  2282 local x,y,z forces =   -3.6183E+05    0.0000E+00    0.0000E+00  setid=       0
 node=  2283 local x,y,z forces =    6.0544E+05    0.0000E+00    0.0000E+00  setid=       0
 node=  2289 local x,y,z forces =   -6.0544E+05    0.0000E+00    0.0000E+00  setid=       0
 node=  2290 local x,y,z forces =    4.1208E+05    0.0000E+00    0.0000E+00  setid=       0
 node=  2296 local x,y,z forces =   -4.1208E+05    0.0000E+00    0.0000E+00  setid=       0
 node=  2297 local x,y,z forces =    2.1115E+05    0.0000E+00    0.0000E+00  setid=       0
 node=  2303 local x,y,z forces =   -2.1115E+05    0.0000E+00    0.0000E+00  setid=       0
 node=  2304 local x,y,z forces =    1.1104E+04    0.0000E+00    0.0000E+00  setid=       0
 node=  2310 local x,y,z forces =   -1.1104E+04    0.0000E+00    0.0000E+00  setid=       0
 node=  2311 local x,y,z forces =   -1.8814E+05    0.0000E+00    0.0000E+00  setid=       0
 node=  2317 local x,y,z forces =    1.8814E+05    0.0000E+00    0.0000E+00  setid=       0
 node=  2318 local x,y,z forces =   -3.8662E+05    0.0000E+00    0.0000E+00  setid=       0
 node=  2324 local x,y,z forces =    3.8662E+05    0.0000E+00    0.0000E+00  setid=       0
 node=  2325 local x,y,z forces =   -5.8415E+05    0.0000E+00    0.0000E+00  setid=       0
 node=  2331 local x,y,z forces =    5.8415E+05    0.0000E+00    0.0000E+00  setid=       0
 node=  2332 local x,y,z forces =   -7.8088E+05    0.0000E+00    0.0000E+00  setid=       0
 node=  2338 local x,y,z forces =    7.8088E+05    0.0000E+00    0.0000E+00  setid=       0
 node=  2339 local x,y,z forces =   -9.7664E+05    0.0000E+00    0.0000E+00  setid=       0
 node=  2345 local x,y,z forces =    9.7664E+05    0.0000E+00    0.0000E+00  setid=       0
 node=  2346 local x,y,z forces =   -1.1704E+06    0.0000E+00    0.0000E+00  setid=       0
 node=  2352 local x,y,z forces =    1.1704E+06    0.0000E+00    0.0000E+00  setid=       0
 node=  2353 local x,y,z forces =   -1.3371E+06    0.0000E+00    0.0000E+00  setid=       0
 node=  2359 local x,y,z forces =    1.3371E+06    0.0000E+00    0.0000E+00  setid=       0
 node=  2360 local x,y,z forces =   -7.1823E+05    0.0000E+00    0.0000E+00  setid=       0
 node=  2366 local x,y,z forces =    7.1823E+05    0.0000E+00    0.0000E+00  setid=       0
             force resultants   =   -3.7082E-03    1.0892E+03   -5.7166E+07
 output at time =   5.20000E-03
 node=    46 local x,y,z forces =    2.6530E-03    1.0056E+03   -5.7179E+07  setid=       0
 node=  2276 local x,y,z forces =    3.9737E+05    0.0000E+00    0.0000E+00  setid=       0
 node=  2282 local x,y,z forces =   -3.9737E+05    0.0000E+00    0.0000E+00  setid=       0
 node=  2283 local x,y,z forces =    6.6951E+05    0.0000E+00    0.0000E+00  setid=       0
 node=  2289 local x,y,z forces =   -6.6951E+05    0.0000E+00    0.0000E+00  setid=       0
 node=  2290 local x,y,z forces =    4.6407E+05    0.0000E+00    0.0000E+00  setid=       0
 node=  2296 local x,y,z forces =   -4.6407E+05    0.0000E+00    0.0000E+00  setid=       0
 node=  2297 local x,y,z forces =    2.5000E+05    0.0000E+00    0.0000E+00  setid=       0
 node=  2303 local x,y,z forces =   -2.5000E+05    0.0000E+00    0.0000E+00  setid=       0
 node=  2304 local x,y,z forces =    3.6824E+04    0.0000E+00    0.0000E+00  setid=       0
 node=  2310 local x,y,z forces =   -3.6824E+04    0.0000E+00    0.0000E+00  setid=       0
 node=  2311 local x,y,z forces =   -1.7550E+05    0.0000E+00    0.0000E+00  setid=       0
 node=  2317 local x,y,z forces =    1.7550E+05    0.0000E+00    0.0000E+00  setid=       0
 node=  2318 local x,y,z forces =   -3.8701E+05    0.0000E+00    0.0000E+00  setid=       0
 node=  2324 local x,y,z forces =    3.8701E+05    0.0000E+00    0.0000E+00  setid=       0
 node=  2325 local x,y,z forces =   -5.9749E+05    0.0000E+00    0.0000E+00  setid=       0
 node=  2331 local x,y,z forces =    5.9749E+05    0.0000E+00    0.0000E+00  setid=       0
 node=  2332 local x,y,z forces =   -8.0711E+05    0.0000E+00    0.0000E+00  setid=       0
 node=  2338 local x,y,z forces =    8.0711E+05    0.0000E+00    0.0000E+00  setid=       0
 node=  2339 local x,y,z forces =   -1.0157E+06    0.0000E+00    0.0000E+00  setid=       0
 node=  2345 local x,y,z forces =    1.0157E+06    0.0000E+00    0.0000E+00  setid=       0
 node=  2346 local x,y,z forces =   -1.2222E+06    0.0000E+00    0.0000E+00  setid=       0
 node=  2352 local x,y,z forces =    1.2222E+06    0.0000E+00    0.0000E+00  setid=       0
 node=  2353 local x,y,z forces =   -1.4004E+06    0.0000E+00    0.0000E+00  setid=       0
 node=  2359 local x,y,z forces =    1.4004E+06    0.0000E+00    0.0000E+00  setid=       0
 node=  2360 local x,y,z forces =   -7.5353E+05    0.0000E+00    0.0000E+00  setid=       0
 node=  2366 local x,y,z forces =    7.5353E+05    0.0000E+00    0.0000E+00  setid=       0
             force resultants   =   -3.5273E-03    1.0056E+03   -5.7179E+07
 output at time =   5.40000E-03
 node=    46 local x,y,z forces =    2.5585E-03    9.3239E+02   -5.7193E+07  setid=       0
 node=  2276 local x,y,z forces =    4.3086E+05    0.0000E+00    0.0000E+00  setid=       0
 node=  2282 local x,y,z forces =   -4.3086E+05    0.0000E+00    0.0000E+00  setid=       0
 node=  2283 local x,y,z forces =    7.2991E+05    0.0000E+00    0.0000E+00  setid=       0
 node=  2289 local x,y,z forces =   -7.2991E+05    0.0000E+00    0.0000E+00  setid=       0
 node=  2290 local x,y,z forces =    5.1305E+05    0.0000E+00    0.0000E+00  setid=       0
 node=  2296 local x,y,z forces =   -5.1305E+05    0.0000E+00    0.0000E+00  setid=       0
 node=  2297 local x,y,z forces =    2.8660E+05    0.0000E+00    0.0000E+00  setid=       0
 node=  2303 local x,y,z forces =   -2.8660E+05    0.0000E+00    0.0000E+00  setid=       0
 node=  2304 local x,y,z forces =    6.1045E+04    0.0000E+00    0.0000E+00  setid=       0
 node=  2310 local x,y,z forces =   -6.1045E+04    0.0000E+00    0.0000E+00  setid=       0
 node=  2311 local x,y,z forces =   -1.6361E+05    0.0000E+00    0.0000E+00  setid=       0
 node=  2317 local x,y,z forces =    1.6361E+05    0.0000E+00    0.0000E+00  setid=       0
 node=  2318 local x,y,z forces =   -3.8739E+05    0.0000E+00    0.0000E+00  setid=       0
 node=  2324 local x,y,z forces =    3.8739E+05    0.0000E+00    0.0000E+00  setid=       0
 node=  2325 local x,y,z forces =   -6.1008E+05    0.0000E+00    0.0000E+00  setid=       0
 node=  2331 local x,y,z forces =    6.1008E+05    0.0000E+00    0.0000E+00  setid=       0
 node=  2332 local x,y,z forces =   -8.3184E+05    0.0000E+00    0.0000E+00  setid=       0
 node=  2338 local x,y,z forces =    8.3184E+05    0.0000E+00    0.0000E+00  setid=       0
 node=  2339 local x,y,z forces =   -1.0525E+06    0.0000E+00    0.0000E+00  setid=       0
 node=  2345 local x,y,z forces =    1.0525E+06    0.0000E+00    0.0000E+00  setid=       0
 node=  2346 local x,y,z forces =   -1.2710E+06    0.0000E+00    0.0000E+00  setid=       0
 node=  2352 local x,y,z forces =    1.2710E+06    0.0000E+00    0.0000E+00  setid=       0
 node=  2353 local x,y,z forces =   -1.4601E+06    0.0000E+00    0.0000E+00  setid=       0
 node=  2359 local x,y,z forces =    1.4601E+06    0.0000E+00    0.0000E+00  setid=       0
 node=  2360 local x,y,z forces =   -7.8678E+05    0.0000E+00    0.0000E+00  setid=       0
 node=  2366 local x,y,z forces =    7.8678E+05    0.0000E+00    0.0000E+00  setid=       0
             force resultants   =   -3.3557E-03    9.3239E+02   -5.7193E+07
 output at time =   5.60000E-03
 node=    46 local x,y,z forces =    2.4571E-03    8.6857E+02   -5.7206E+07  setid=       0
 node=  2276 local x,y,z forces =    4.6262E+05    0.0000E+00    0.0000E+00  setid=       0
 node=  2282 local x,y,z forces =   -4.6262E+05    0.0000E+00    0.0000E+00  setid=       0
 node=  2283 local x,y,z forces =    7.8720E+05    0.0000E+00    0.0000E+00  setid=       0
 node=  2289 local x,y,z forces =   -7.8720E+05    0.0000E+00    0.0000E+00  setid=       0
 node=  2290 local x,y,z forces =    5.5951E+05    0.0000E+00    0.0000E+00  setid=       0
 node=  2296 local x,y,z forces =   -5.5951E+05    0.0000E+00    0.0000E+00  setid=       0
 node=  2297 local x,y,z forces =    3.2130E+05    0.0000E+00    0.0000E+00  setid=       0
 node=  2303 local x,y,z forces =   -3.2130E+05    0.0000E+00    0.0000E+00  setid=       0
 node=  2304 local x,y,z forces =    8.4001E+04    0.0000E+00    0.0000E+00  setid=       0
 node=  2310 local x,y,z forces =   -8.4001E+04    0.0000E+00    0.0000E+00  setid=       0
 node=  2311 local x,y,z forces =   -1.5236E+05    0.0000E+00    0.0000E+00  setid=       0
 node=  2317 local x,y,z forces =    1.5236E+05    0.0000E+00    0.0000E+00  setid=       0
 node=  2318 local x,y,z forces =   -3.8777E+05    0.0000E+00    0.0000E+00  setid=       0
 node=  2324 local x,y,z forces =    3.8777E+05    0.0000E+00    0.0000E+00  setid=       0
 node=  2325 local x,y,z forces =   -6.2203E+05    0.0000E+00    0.0000E+00  setid=       0
 node=  2331 local x,y,z forces =    6.2203E+05    0.0000E+00    0.0000E+00  setid=       0
 node=  2332 local x,y,z forces =   -8.5530E+05    0.0000E+00    0.0000E+00  setid=       0
 node=  2338 local x,y,z forces =    8.5530E+05    0.0000E+00    0.0000E+00  setid=       0
 node=  2339 local x,y,z forces =   -1.0874E+06    0.0000E+00    0.0000E+00  setid=       0
 node=  2345 local x,y,z forces =    1.0874E+06    0.0000E+00    0.0000E+00  setid=       0
 node=  2346 local x,y,z forces =   -1.3173E+06    0.0000E+00    0.0000E+00  setid=       0
 node=  2352 local x,y,z forces =    1.3173E+06    0.0000E+00    0.0000E+00  setid=       0
 node=  2353 local x,y,z forces =   -1.5166E+06    0.0000E+00    0.0000E+00  setid=       0
 node=  2359 local x,y,z forces =    1.5166E+06    0.0000E+00    0.0000E+00  setid=       0
 node=  2360 local x,y,z forces =   -8.1831E+05    0.0000E+00    0.0000E+00  setid=       0
 node=  2366 local x,y,z forces =    8.1831E+05    0.0000E+00    0.0000E+00  setid=       0
             force resultants   =   -3.1910E-03    8.6857E+02   -5.7206E+07
 output at time =   5.80000E-03
 node=    46 local x,y,z forces =    2.3502E-03    8.1276E+02   -5.7219E+07  setid=       0
 node=  2276 local x,y,z forces =    4.9291E+05    0.0000E+00    0.0000E+00  setid=       0
 node=  2282 local x,y,z forces =   -4.9291E+05    0.0000E+00    0.0000E+00  setid=       0
 node=  2283 local x,y,z forces =    8.4182E+05    0.0000E+00    0.0000E+00  setid=       0
 node=  2289 local x,y,z forces =   -8.4182E+05    0.0000E+00    0.0000E+00  setid=       0
 node=  2290 local x,y,z forces =    6.0380E+05    0.0000E+00    0.0000E+00  setid=       0
 node=  2296 local x,y,z forces =   -6.0380E+05    0.0000E+00    0.0000E+00  setid=       0
 node=  2297 local x,y,z forces =    3.5438E+05    0.0000E+00    0.0000E+00  setid=       0
 node=  2303 local x,y,z forces =   -3.5438E+05    0.0000E+00    0.0000E+00  setid=       0
 node=  2304 local x,y,z forces =    1.0587E+05    0.0000E+00    0.0000E+00  setid=       0
 node=  2310 local x,y,z forces =   -1.0587E+05    0.0000E+00    0.0000E+00  setid=       0
 node=  2311 local x,y,z forces =   -1.4165E+05    0.0000E+00    0.0000E+00  setid=       0
 node=  2317 local x,y,z forces =    1.4165E+05    0.0000E+00    0.0000E+00  setid=       0
 node=  2318 local x,y,z forces =   -3.8816E+05    0.0000E+00    0.0000E+00  setid=       0
 node=  2324 local x,y,z forces =    3.8816E+05    0.0000E+00    0.0000E+00  setid=       0
 node=  2325 local x,y,z forces =   -6.3345E+05    0.0000E+00    0.0000E+00  setid=       0
 node=  2331 local x,y,z forces =    6.3345E+05    0.0000E+00    0.0000E+00  setid=       0
 node=  2332 local x,y,z forces =   -8.7767E+05    0.0000E+00    0.0000E+00  setid=       0
 node=  2338 local x,y,z forces =    8.7767E+05    0.0000E+00    0.0000E+00  setid=       0
 node=  2339 local x,y,z forces =   -1.1207E+06    0.0000E+00    0.0000E+00  setid=       0
 node=  2345 local x,y,z forces =    1.1207E+06    0.0000E+00    0.0000E+00  setid=       0
 node=  2346 local x,y,z forces =   -1.3614E+06    0.0000E+00    0.0000E+00  setid=       0
 node=  2352 local x,y,z forces =    1.3614E+06    0.0000E+00    0.0000E+00  setid=       0
 node=  2353 local x,y,z forces =   -1.5704E+06    0.0000E+00    0.0000E+00  setid=       0
 node=  2359 local x,y,z forces =    1.5704E+06    0.0000E+00    0.0000E+00  setid=       0
 node=  2360 local x,y,z forces =   -8.4836E+05    0.0000E+00    0.0000E+00  setid=       0
 node=  2366 local x,y,z forces =    8.4836E+05    0.0000E+00    0.0000E+00  setid=       0
             force resultants   =   -3.0313E-03    8.1276E+02   -5.7219E+07
 output at time =   6.00000E-03
 node=    46 local x,y,z forces =    2.2389E-03    7.6374E+02   -5.7233E+07  setid=       0
 node=  2276 local x,y,z forces =    5.2190E+05    0.0000E+00    0.0000E+00  setid=       0
 node=  2282 local x,y,z forces =   -5.2190E+05    0.0000E+00    0.0000E+00  setid=       0
 node=  2283 local x,y,z forces =    8.9413E+05    0.0000E+00    0.0000E+00  setid=       0
 node=  2289 local x,y,z forces =   -8.9413E+05    0.0000E+00    0.0000E+00  setid=       0
 node=  2290 local x,y,z forces =    6.4619E+05    0.0000E+00    0.0000E+00  setid=       0
 node=  2296 local x,y,z forces =   -6.4619E+05    0.0000E+00    0.0000E+00  setid=       0
 node=  2297 local x,y,z forces =    3.8603E+05    0.0000E+00    0.0000E+00  setid=       0
 node=  2303 local x,y,z forces =   -3.8603E+05    0.0000E+00    0.0000E+00  setid=       0
[...]
 node=  2311 local x,y,z forces =    2.2586E+05    0.0000E+00    0.0000E+00  setid=       0
 node=  2317 local x,y,z forces =   -2.2586E+05    0.0000E+00    0.0000E+00  setid=       0
 node=  2318 local x,y,z forces =   -4.1296E+05    0.0000E+00    0.0000E+00  setid=       0
 node=  2324 local x,y,z forces =    4.1296E+05    0.0000E+00    0.0000E+00  setid=       0
 node=  2325 local x,y,z forces =   -1.0464E+06    0.0000E+00    0.0000E+00  setid=       0
 node=  2331 local x,y,z forces =    1.0464E+06    0.0000E+00    0.0000E+00  setid=       0
 node=  2332 local x,y,z forces =   -1.6743E+06    0.0000E+00    0.0000E+00  setid=       0
 node=  2338 local x,y,z forces =    1.6743E+06    0.0000E+00    0.0000E+00  setid=       0
 node=  2339 local x,y,z forces =   -2.2974E+06    0.0000E+00    0.0000E+00  setid=       0
 node=  2345 local x,y,z forces =    2.2974E+06    0.0000E+00    0.0000E+00  setid=       0
 node=  2346 local x,y,z forces =   -2.9146E+06    0.0000E+00    0.0000E+00  setid=       0
 node=  2352 local x,y,z forces =    2.9146E+06    0.0000E+00    0.0000E+00  setid=       0
 node=  2353 local x,y,z forces =   -3.4563E+06    0.0000E+00    0.0000E+00  setid=       0
 node=  2359 local x,y,z forces =    3.4563E+06    0.0000E+00    0.0000E+00  setid=       0
 node=  2360 local x,y,z forces =   -1.9044E+06    0.0000E+00    0.0000E+00  setid=       0
 node=  2366 local x,y,z forces =    1.9044E+06    0.0000E+00    0.0000E+00  setid=       0
             force resultants   =    7.4000E-03    1.0069E+04   -5.8082E+07
 output at time =   1.88000E-02
 node=    46 local x,y,z forces =   -5.8658E-03    9.9223E+03   -5.8095E+07  setid=       0
 node=  2276 local x,y,z forces =    1.5759E+06    0.0000E+00    0.0000E+00  setid=       0
 node=  2282 local x,y,z forces =   -1.5759E+06    0.0000E+00    0.0000E+00  setid=       0
 node=  2283 local x,y,z forces =    2.7989E+06    0.0000E+00    0.0000E+00  setid=       0
 node=  2289 local x,y,z forces =   -2.7989E+06    0.0000E+00    0.0000E+00  setid=       0
 node=  2290 local x,y,z forces =    2.1852E+06    0.0000E+00    0.0000E+00  setid=       0
 node=  2296 local x,y,z forces =   -2.1852E+06    0.0000E+00    0.0000E+00  setid=       0
 node=  2297 local x,y,z forces =    1.5304E+06    0.0000E+00    0.0000E+00  setid=       0
 node=  2303 local x,y,z forces =   -1.5304E+06    0.0000E+00    0.0000E+00  setid=       0
 node=  2304 local x,y,z forces =    8.7805E+05    0.0000E+00    0.0000E+00  setid=       0
 node=  2310 local x,y,z forces =   -8.7805E+05    0.0000E+00    0.0000E+00  setid=       0
 node=  2311 local x,y,z forces =    2.2977E+05    0.0000E+00    0.0000E+00  setid=       0
 node=  2317 local x,y,z forces =   -2.2977E+05    0.0000E+00    0.0000E+00  setid=       0
 node=  2318 local x,y,z forces =   -4.1335E+05    0.0000E+00    0.0000E+00  setid=       0
 node=  2324 local x,y,z forces =    4.1335E+05    0.0000E+00    0.0000E+00  setid=       0
 node=  2325 local x,y,z forces =   -1.0510E+06    0.0000E+00    0.0000E+00  setid=       0
 node=  2331 local x,y,z forces =    1.0510E+06    0.0000E+00    0.0000E+00  setid=       0
 node=  2332 local x,y,z forces =   -1.6831E+06    0.0000E+00    0.0000E+00  setid=       0
 node=  2338 local x,y,z forces =    1.6831E+06    0.0000E+00    0.0000E+00  setid=       0
 node=  2339 local x,y,z forces =   -2.3103E+06    0.0000E+00    0.0000E+00  setid=       0
 node=  2345 local x,y,z forces =    2.3103E+06    0.0000E+00    0.0000E+00  setid=       0
 node=  2346 local x,y,z forces =   -2.9315E+06    0.0000E+00    0.0000E+00  setid=       0
 node=  2352 local x,y,z forces =    2.9315E+06    0.0000E+00    0.0000E+00  setid=       0
 node=  2353 local x,y,z forces =   -3.4767E+06    0.0000E+00    0.0000E+00  setid=       0
 node=  2359 local x,y,z forces =    3.4767E+06    0.0000E+00    0.0000E+00  setid=       0
 node=  2360 local x,y,z forces =   -1.9158E+06    0.0000E+00    0.0000E+00  setid=       0
 node=  2366 local x,y,z forces =    1.9158E+06    0.0000E+00    0.0000E+00  setid=       0
             force resultants   =    7.5479E-03    9.9223E+03   -5.8095E+07
 output at time =   1.90000E-02
 node=    46 local x,y,z forces =   -6.0339E-03    9.7793E+03   -5.8108E+07  setid=       0
 node=  2276 local x,y,z forces =    1.5876E+06    0.0000E+00    0.0000E+00  setid=       0
 node=  2282 local x,y,z forces =   -1.5876E+06    0.0000E+00    0.0000E+00  setid=       0
 node=  2283 local x,y,z forces =    2.8200E+06    0.0000E+00    0.0000E+00  setid=       0
 node=  2289 local x,y,z forces =   -2.8200E+06    0.0000E+00    0.0000E+00  setid=       0
 node=  2290 local x,y,z forces =    2.2022E+06    0.0000E+00    0.0000E+00  setid=       0
 node=  2296 local x,y,z forces =   -2.2022E+06    0.0000E+00    0.0000E+00  setid=       0
 node=  2297 local x,y,z forces =    1.5430E+06    0.0000E+00    0.0000E+00  setid=       0
 node=  2303 local x,y,z forces =   -1.5430E+06    0.0000E+00    0.0000E+00  setid=       0
 node=  2304 local x,y,z forces =    8.8626E+05    0.0000E+00    0.0000E+00  setid=       0
 node=  2310 local x,y,z forces =   -8.8626E+05    0.0000E+00    0.0000E+00  setid=       0
 node=  2311 local x,y,z forces =    2.3365E+05    0.0000E+00    0.0000E+00  setid=       0
 node=  2317 local x,y,z forces =   -2.3365E+05    0.0000E+00    0.0000E+00  setid=       0
 node=  2318 local x,y,z forces =   -4.1374E+05    0.0000E+00    0.0000E+00  setid=       0
 node=  2324 local x,y,z forces =    4.1374E+05    0.0000E+00    0.0000E+00  setid=       0
 node=  2325 local x,y,z forces =   -1.0556E+06    0.0000E+00    0.0000E+00  setid=       0
 node=  2331 local x,y,z forces =    1.0556E+06    0.0000E+00    0.0000E+00  setid=       0
 node=  2332 local x,y,z forces =   -1.6918E+06    0.0000E+00    0.0000E+00  setid=       0
 node=  2338 local x,y,z forces =    1.6918E+06    0.0000E+00    0.0000E+00  setid=       0
 node=  2339 local x,y,z forces =   -2.3231E+06    0.0000E+00    0.0000E+00  setid=       0
 node=  2345 local x,y,z forces =    2.3231E+06    0.0000E+00    0.0000E+00  setid=       0
 node=  2346 local x,y,z forces =   -2.9483E+06    0.0000E+00    0.0000E+00  setid=       0
 node=  2352 local x,y,z forces =    2.9483E+06    0.0000E+00    0.0000E+00  setid=       0
 node=  2353 local x,y,z forces =   -3.4970E+06    0.0000E+00    0.0000E+00  setid=       0
 node=  2359 local x,y,z forces =    3.4970E+06    0.0000E+00    0.0000E+00  setid=       0
 node=  2360 local x,y,z forces =   -1.9272E+06    0.0000E+00    0.0000E+00  setid=       0
 node=  2366 local x,y,z forces =    1.9272E+06    0.0000E+00    0.0000E+00  setid=       0
             force resultants   =    7.6965E-03    9.7793E+03   -5.8108E+07
 output at time =   1.92000E-02
 node=    46 local x,y,z forces =   -6.2023E-03    9.6400E+03   -5.8122E+07  setid=       0
 node=  2276 local x,y,z forces =    1.5992E+06    0.0000E+00    0.0000E+00  setid=       0
 node=  2282 local x,y,z forces =   -1.5992E+06    0.0000E+00    0.0000E+00  setid=       0
 node=  2283 local x,y,z forces =    2.8410E+06    0.0000E+00    0.0000E+00  setid=       0
 node=  2289 local x,y,z forces =   -2.8410E+06    0.0000E+00    0.0000E+00  setid=       0
 node=  2290 local x,y,z forces =    2.2191E+06    0.0000E+00    0.0000E+00  setid=       0
 node=  2296 local x,y,z forces =   -2.2191E+06    0.0000E+00    0.0000E+00  setid=       0
 node=  2297 local x,y,z forces =    1.5555E+06    0.0000E+00    0.0000E+00  setid=       0
 node=  2303 local x,y,z forces =   -1.5555E+06    0.0000E+00    0.0000E+00  setid=       0
 node=  2304 local x,y,z forces =    8.9442E+05    0.0000E+00    0.0000E+00  setid=       0
 node=  2310 local x,y,z forces =   -8.9442E+05    0.0000E+00    0.0000E+00  setid=       0
 node=  2311 local x,y,z forces =    2.3750E+05    0.0000E+00    0.0000E+00  setid=       0
 node=  2317 local x,y,z forces =   -2.3750E+05    0.0000E+00    0.0000E+00  setid=       0
 node=  2318 local x,y,z forces =   -4.1412E+05    0.0000E+00    0.0000E+00  setid=       0
 node=  2324 local x,y,z forces =    4.1412E+05    0.0000E+00    0.0000E+00  setid=       0
 node=  2325 local x,y,z forces =   -1.0602E+06    0.0000E+00    0.0000E+00  setid=       0
 node=  2331 local x,y,z forces =    1.0602E+06    0.0000E+00    0.0000E+00  setid=       0
 node=  2332 local x,y,z forces =   -1.7005E+06    0.0000E+00    0.0000E+00  setid=       0
 node=  2338 local x,y,z forces =    1.7005E+06    0.0000E+00    0.0000E+00  setid=       0
 node=  2339 local x,y,z forces =   -2.3358E+06    0.0000E+00    0.0000E+00  setid=       0
 node=  2345 local x,y,z forces =    2.3358E+06    0.0000E+00    0.0000E+00  setid=       0
 node=  2346 local x,y,z forces =   -2.9650E+06    0.0000E+00    0.0000E+00  setid=       0
 node=  2352 local x,y,z forces =    2.9650E+06    0.0000E+00    0.0000E+00  setid=       0
 node=  2353 local x,y,z forces =   -3.5172E+06    0.0000E+00    0.0000E+00  setid=       0
 node=  2359 local x,y,z forces =    3.5172E+06    0.0000E+00    0.0000E+00  setid=       0
 node=  2360 local x,y,z forces =   -1.9386E+06    0.0000E+00    0.0000E+00  setid=       0
 node=  2366 local x,y,z forces =    1.9386E+06    0.0000E+00    0.0000E+00  setid=       0
             force resultants   =    7.8456E-03    9.6400E+03   -5.8122E+07
 output at time =   1.94000E-02
 node=    46 local x,y,z forces =   -6.3709E-03    9.5044E+03   -5.8135E+07  setid=       0
 node=  2276 local x,y,z forces =    1.6107E+06    0.0000E+00    0.0000E+00  setid=       0
 node=  2282 local x,y,z forces =   -1.6107E+06    0.0000E+00    0.0000E+00  setid=       0
 node=  2283 local x,y,z forces =    2.8618E+06    0.0000E+00    0.0000E+00  setid=       0
 node=  2289 local x,y,z forces =   -2.8618E+06    0.0000E+00    0.0000E+00  setid=       0
 node=  2290 local x,y,z forces =    2.2359E+06    0.0000E+00    0.0000E+00  setid=       0
 node=  2296 local x,y,z forces =   -2.2359E+06    0.0000E+00    0.0000E+00  setid=       0
 node=  2297 local x,y,z forces =    1.5680E+06    0.0000E+00    0.0000E+00  setid=       0
 node=  2303 local x,y,z forces =   -1.5680E+06    0.0000E+00    0.0000E+00  setid=       0
 node=  2304 local x,y,z forces =    9.0253E+05    0.0000E+00    0.0000E+00  setid=       0
 node=  2310 local x,y,z forces =   -9.0253E+05    0.0000E+00    0.0000E+00  setid=       0
 node=  2311 local x,y,z forces =    2.4133E+05    0.0000E+00    0.0000E+00  setid=       0
 node=  2317 local x,y,z forces =   -2.4133E+05    0.0000E+00    0.0000E+00  setid=       0
 node=  2318 local x,y,z forces =   -4.1451E+05    0.0000E+00    0.0000E+00  setid=       0
 node=  2324 local x,y,z forces =    4.1451E+05    0.0000E+00    0.0000E+00  setid=       0
 node=  2325 local x,y,z forces =   -1.0647E+06    0.0000E+00    0.0000E+00  setid=       0
 node=  2331 local x,y,z forces =    1.0647E+06    0.0000E+00    0.0000E+00  setid=       0
 node=  2332 local x,y,z forces =   -1.7091E+06    0.0000E+00    0.0000E+00  setid=       0
 node=  2338 local x,y,z forces =    1.7091E+06    0.0000E+00    0.0000E+00  setid=       0
 node=  2339 local x,y,z forces =   -2.3484E+06    0.0000E+00    0.0000E+00  setid=       0
 node=  2345 local x,y,z forces =    2.3484E+06    0.0000E+00    0.0000E+00  setid=       0
 node=  2346 local x,y,z forces =   -2.9816E+06    0.0000E+00    0.0000E+00  setid=       0
 node=  2352 local x,y,z forces =    2.9816E+06    0.0000E+00    0.0000E+00  setid=       0
 node=  2353 local x,y,z forces =   -3.5372E+06    0.0000E+00    0.0000E+00  setid=       0
 node=  2359 local x,y,z forces =    3.5372E+06    0.0000E+00    0.0000E+00  setid=       0
 node=  2360 local x,y,z forces =   -1.9499E+06    0.0000E+00    0.0000E+00  setid=       0
 node=  2366 local x,y,z forces =    1.9499E+06    0.0000E+00    0.0000E+00  setid=       0
             force resultants   =    7.9953E-03    9.5044E+03   -5.8135E+07
 output at time =   1.96000E-02
 node=    46 local x,y,z forces =   -6.5397E-03    9.3723E+03   -5.8148E+07  setid=       0
 node=  2276 local x,y,z forces =    1.6221E+06    0.0000E+00    0.0000E+00  setid=       0
 node=  2282 local x,y,z forces =   -1.6221E+06    0.0000E+00    0.0000E+00  setid=       0
 node=  2283 local x,y,z forces =    2.8825E+06    0.0000E+00    0.0000E+00  setid=       0
 node=  2289 local x,y,z forces =   -2.8825E+06    0.0000E+00    0.0000E+00  setid=       0
 node=  2290 local x,y,z forces =    2.2526E+06    0.0000E+00    0.0000E+00  setid=       0
 node=  2296 local x,y,z forces =   -2.2526E+06    0.0000E+00    0.0000E+00  setid=       0
 node=  2297 local x,y,z forces =    1.5803E+06    0.0000E+00    0.0000E+00  setid=       0
 node=  2303 local x,y,z forces =   -1.5803E+06    0.0000E+00    0.0000E+00  setid=       0
 node=  2304 local x,y,z forces =    9.1058E+05    0.0000E+00    0.0000E+00  setid=       0
 node=  2310 local x,y,z forces =   -9.1058E+05    0.0000E+00    0.0000E+00  setid=       0
 node=  2311 local x,y,z forces =    2.4513E+05    0.0000E+00    0.0000E+00  setid=       0
 node=  2317 local x,y,z forces =   -2.4513E+05    0.0000E+00    0.0000E+00  setid=       0
 node=  2318 local x,y,z forces =   -4.1490E+05    0.0000E+00    0.0000E+00  setid=       0
 node=  2324 local x,y,z forces =    4.1490E+05    0.0000E+00    0.0000E+00  setid=       0
 node=  2325 local x,y,z forces =   -1.0692E+06    0.0000E+00    0.0000E+00  setid=       0
 node=  2331 local x,y,z forces =    1.0692E+06    0.0000E+00    0.0000E+00  setid=       0
 node=  2332 local x,y,z forces =   -1.7176E+06    0.0000E+00    0.0000E+00  setid=       0
 node=  2338 local x,y,z forces =    1.7176E+06    0.0000E+00    0.0000E+00  setid=       0
 node=  2339 local x,y,z forces =   -2.3610E+06    0.0000E+00    0.0000E+00  setid=       0
 node=  2345 local x,y,z forces =    2.3610E+06    0.0000E+00    0.0000E+00  setid=       0
 node=  2346 local x,y,z forces =   -2.9981E+06    0.0000E+00    0.0000E+00  setid=       0
 node=  2352 local x,y,z forces =    2.9981E+06    0.0000E+00    0.0000E+00  setid=       0
 node=  2353 local x,y,z forces =   -3.5572E+06    0.0000E+00    0.0000E+00  setid=       0
 node=  2359 local x,y,z forces =    3.5572E+06    0.0000E+00    0.0000E+00  setid=       0
 node=  2360 local x,y,z forces =   -1.9611E+06    0.0000E+00    0.0000E+00  setid=       0
 node=  2366 local x,y,z forces =    1.9611E+06    0.0000E+00    0.0000E+00  setid=       0
             force resultants   =    8.1458E-03    9.3723E+03   -5.8148E+07
 output at time =   1.98000E-02
 node=    46 local x,y,z forces =   -6.7088E-03    9.2435E+03   -5.8161E+07  setid=       0
 node=  2276 local x,y,z forces =    1.6335E+06    0.0000E+00    0.0000E+00  setid=       0
 node=  2282 local x,y,z forces =   -1.6335E+06    0.0000E+00    0.0000E+00  setid=       0
 node=  2283 local x,y,z forces =    2.9031E+06    0.0000E+00    0.0000E+00  setid=       0
 node=  2289 local x,y,z forces =   -2.9031E+06    0.0000E+00    0.0000E+00  setid=       0
 node=  2290 local x,y,z forces =    2.2692E+06    0.0000E+00    0.0000E+00  setid=       0
 node=  2296 local x,y,z forces =   -2.2692E+06    0.0000E+00    0.0000E+00  setid=       0
 node=  2297 local x,y,z forces =    1.5926E+06    0.0000E+00    0.0000E+00  setid=       0
 node=  2303 local x,y,z forces =   -1.5926E+06    0.0000E+00    0.0000E+00  setid=       0
 node=  2304 local x,y,z forces =    9.1859E+05    0.0000E+00    0.0000E+00  setid=       0
 node=  2310 local x,y,z forces =   -9.1859E+05    0.0000E+00    0.0000E+00  setid=       0
 node=  2311 local x,y,z forces =    2.4891E+05    0.0000E+00    0.0000E+00  setid=       0
 node=  2317 local x,y,z forces =   -2.4891E+05    0.0000E+00    0.0000E+00  setid=       0
 node=  2318 local x,y,z forces =   -4.1529E+05    0.0000E+00    0.0000E+00  setid=       0
 node=  2324 local x,y,z forces =    4.1529E+05    0.0000E+00    0.0000E+00  setid=       0
 node=  2325 local x,y,z forces =   -1.0737E+06    0.0000E+00    0.0000E+00  setid=       0
 node=  2331 local x,y,z forces =    1.0737E+06    0.0000E+00    0.0000E+00  setid=       0
 node=  2332 local x,y,z forces =   -1.7262E+06    0.0000E+00    0.0000E+00  setid=       0
 node=  2338 local x,y,z forces =    1.7262E+06    0.0000E+00    0.0000E+00  setid=       0
 node=  2339 local x,y,z forces =   -2.3735E+06    0.0000E+00    0.0000E+00  setid=       0
 node=  2345 local x,y,z forces =    2.3735E+06    0.0000E+00    0.0000E+00  setid=       0
 node=  2346 local x,y,z forces =   -3.0146E+06    0.0000E+00    0.0000E+00  setid=       0
 node=  2352 local x,y,z forces =    3.0146E+06    0.0000E+00    0.0000E+00  setid=       0
 node=  2353 local x,y,z forces =   -3.5769E+06    0.0000E+00    0.0000E+00  setid=       0
 node=  2359 local x,y,z forces =    3.5769E+06    0.0000E+00    0.0000E+00  setid=       0
 node=  2360 local x,y,z forces =   -1.9722E+06    0.0000E+00    0.0000E+00  setid=       0
 node=  2366 local x,y,z forces =    1.9722E+06    0.0000E+00    0.0000E+00  setid=       0
             force resultants   =    8.2967E-03    9.2435E+03   -5.8161E+07
 output at time =   2.00000E-02
 node=    46 local x,y,z forces =   -6.8782E-03    9.1180E+03   -5.8174E+07  setid=       0
 node=  2276 local x,y,z forces =    1.6448E+06    0.0000E+00    0.0000E+00  setid=       0
 node=  2282 local x,y,z forces =   -1.6448E+06    0.0000E+00    0.0000E+00  setid=       0
 node=  2283 local x,y,z forces =    2.9236E+06    0.0000E+00    0.0000E+00  setid=       0
 node=  2289 local x,y,z forces =   -2.9236E+06    0.0000E+00    0.0000E+00  setid=       0
 node=  2290 local x,y,z forces =    2.2857E+06    0.0000E+00    0.0000E+00  setid=       0
 node=  2296 local x,y,z forces =   -2.2857E+06    0.0000E+00    0.0000E+00  setid=       0
 node=  2297 local x,y,z forces =    1.6048E+06    0.0000E+00    0.0000E+00  setid=       0
 node=  2303 local x,y,z forces =   -1.6048E+06    0.0000E+00    0.0000E+00  setid=       0
 node=  2304 local x,y,z forces =    9.2655E+05    0.0000E+00    0.0000E+00  setid=       0
 node=  2310 local x,y,z forces =   -9.2655E+05    0.0000E+00    0.0000E+00  setid=       0
 node=  2311 local x,y,z forces =    2.5266E+05    0.0000E+00    0.0000E+00  setid=       0
 node=  2317 local x,y,z forces =   -2.5266E+05    0.0000E+00    0.0000E+00  setid=       0
 node=  2318 local x,y,z forces =   -4.1568E+05    0.0000E+00    0.0000E+00  setid=       0
 node=  2324 local x,y,z forces =    4.1568E+05    0.0000E+00    0.0000E+00  setid=       0
 node=  2325 local x,y,z forces =   -1.0782E+06    0.0000E+00    0.0000E+00  setid=       0
 node=  2331 local x,y,z forces =    1.0782E+06    0.0000E+00    0.0000E+00  setid=       0
 node=  2332 local x,y,z forces =   -1.7346E+06    0.0000E+00    0.0000E+00  setid=       0
 node=  2338 local x,y,z forces =    1.7346E+06    0.0000E+00    0.0000E+00  setid=       0
 node=  2339 local x,y,z forces =   -2.3859E+06    0.0000E+00    0.0000E+00  setid=       0
 node=  2345 local x,y,z forces =    2.3859E+06    0.0000E+00    0.0000E+00  setid=       0
 node=  2346 local x,y,z forces =   -3.0309E+06    0.0000E+00    0.0000E+00  setid=       0
 node=  2352 local x,y,z forces =    3.0309E+06    0.0000E+00    0.0000E+00  setid=       0
 node=  2353 local x,y,z forces =   -3.5966E+06    0.0000E+00    0.0000E+00  setid=       0
 node=  2359 local x,y,z forces =    3.5966E+06    0.0000E+00    0.0000E+00  setid=       0
 node=  2360 local x,y,z forces =   -1.9833E+06    0.0000E+00    0.0000E+00  setid=       0
 node=  2366 local x,y,z forces =    1.9833E+06    0.0000E+00    0.0000E+00  setid=       0
             force resultants   =    8.4483E-03    9.1180E+03   -5.8174E+07
