 400x600                                                                 
                         ls-dyna smp.123264 d           date 01/12/2018

{BEGIN LEGEND}
 Entity #        Title
        0     bottom                                                                
        0     top                                                                   
        0     middle                                                                
{END LEGEND}

 single point constraint forces

 output at time =   0.00000E+00
 node=     5 local x,y,z forces =    0.0000E+00    0.0000E+00    0.0000E+00  setid=       0
 node=    14 local x,y,z forces =    0.0000E+00    0.0000E+00    0.0000E+00  setid=       0
 node=    23 local x,y,z forces =    0.0000E+00    0.0000E+00    0.0000E+00  setid=       0
 node=    32 local x,y,z forces =    0.0000E+00    0.0000E+00    0.0000E+00  setid=       0
 node=    41 local x,y,z forces =    0.0000E+00    0.0000E+00    0.0000E+00  setid=       0
 node=    50 local x,y,z forces =    0.0000E+00    0.0000E+00    0.0000E+00  setid=       0
 node=    59 local x,y,z forces =    0.0000E+00    0.0000E+00    0.0000E+00  setid=       0
 node=    68 local x,y,z forces =    0.0000E+00    0.0000E+00    0.0000E+00  setid=       0
 node=    77 local x,y,z forces =    0.0000E+00    0.0000E+00    0.0000E+00  setid=       0
 node=    86 local x,y,z forces =    0.0000E+00    0.0000E+00    0.0000E+00  setid=       0
 node=    95 local x,y,z forces =    0.0000E+00    0.0000E+00    0.0000E+00  setid=       0
 node=   104 local x,y,z forces =    0.0000E+00    0.0000E+00    0.0000E+00  setid=       0
 node=   113 local x,y,z forces =    0.0000E+00    0.0000E+00    0.0000E+00  setid=       0
 node=  5855 local x,y,z forces =    0.0000E+00    0.0000E+00    0.0000E+00  setid=       0
 node=  5864 local x,y,z forces =    0.0000E+00    0.0000E+00    0.0000E+00  setid=       0
 node=  5873 local x,y,z forces =    0.0000E+00    0.0000E+00    0.0000E+00  setid=       0
 node=  5882 local x,y,z forces =    0.0000E+00    0.0000E+00    0.0000E+00  setid=       0
 node=  5891 local x,y,z forces =    0.0000E+00    0.0000E+00    0.0000E+00  setid=       0
 node=  5900 local x,y,z forces =    0.0000E+00    0.0000E+00    0.0000E+00  setid=       0
 node=  5909 local x,y,z forces =    0.0000E+00    0.0000E+00    0.0000E+00  setid=       0
 node=  5918 local x,y,z forces =    0.0000E+00    0.0000E+00    0.0000E+00  setid=       0
 node=  5927 local x,y,z forces =    0.0000E+00    0.0000E+00    0.0000E+00  setid=       0
 node=  5936 local x,y,z forces =    0.0000E+00    0.0000E+00    0.0000E+00  setid=       0
 node=  5945 local x,y,z forces =    0.0000E+00    0.0000E+00    0.0000E+00  setid=       0
 node=  5954 local x,y,z forces =    0.0000E+00    0.0000E+00    0.0000E+00  setid=       0
 node=  5963 local x,y,z forces =    0.0000E+00    0.0000E+00    0.0000E+00  setid=       0
             force resultants   =    0.0000E+00    0.0000E+00    0.0000E+00
 output at time =   5.00000E-04
 node=     5 local x,y,z forces =    2.4928E+00   -4.3468E+04   -1.1919E+05  setid=       0
 node=    14 local x,y,z forces =    4.1930E+00   -2.7072E+04   -2.3239E+05  setid=       0
 node=    23 local x,y,z forces =    3.7142E+00   -1.5383E+04   -2.3077E+05  setid=       0
 node=    32 local x,y,z forces =    3.1935E+00   -1.0122E+04   -2.3097E+05  setid=       0
 node=    41 local x,y,z forces =    2.7512E+00   -5.9903E+03   -2.3071E+05  setid=       0
 node=    50 local x,y,z forces =    2.4821E+00   -2.8149E+03   -2.3066E+05  setid=       0
 node=    59 local x,y,z forces =    2.3827E+00   -5.4570E-11   -2.3058E+05  setid=       0
 node=    68 local x,y,z forces =    2.4821E+00    2.8149E+03   -2.3066E+05  setid=       0
 node=    77 local x,y,z forces =    2.7512E+00    5.9903E+03   -2.3071E+05  setid=       0
 node=    86 local x,y,z forces =    3.1935E+00    1.0122E+04   -2.3097E+05  setid=       0
 node=    95 local x,y,z forces =    3.7142E+00    1.5383E+04   -2.3077E+05  setid=       0
 node=   104 local x,y,z forces =    4.1930E+00    2.7072E+04   -2.3239E+05  setid=       0
 node=   113 local x,y,z forces =    2.4928E+00    4.3468E+04   -1.1919E+05  setid=       0
 node=  5855 local x,y,z forces =    2.4928E+00   -4.3468E+04    0.0000E+00  setid=       0
 node=  5864 local x,y,z forces =    4.1930E+00   -2.7072E+04    0.0000E+00  setid=       0
 node=  5873 local x,y,z forces =    3.7142E+00   -1.5383E+04    0.0000E+00  setid=       0
 node=  5882 local x,y,z forces =    3.1934E+00   -1.0122E+04    0.0000E+00  setid=       0
 node=  5891 local x,y,z forces =    2.7512E+00   -5.9903E+03    0.0000E+00  setid=       0
 node=  5900 local x,y,z forces =    2.4821E+00   -2.8149E+03    0.0000E+00  setid=       0
 node=  5909 local x,y,z forces =    2.3827E+00    4.0745E-10    0.0000E+00  setid=       0
 node=  5918 local x,y,z forces =    2.4821E+00    2.8149E+03    0.0000E+00  setid=       0
 node=  5927 local x,y,z forces =    2.7512E+00    5.9903E+03    0.0000E+00  setid=       0
 node=  5936 local x,y,z forces =    3.1934E+00    1.0122E+04    0.0000E+00  setid=       0
 node=  5945 local x,y,z forces =    3.7142E+00    1.5383E+04    0.0000E+00  setid=       0
 node=  5954 local x,y,z forces =    4.1930E+00    2.7072E+04    0.0000E+00  setid=       0
 node=  5963 local x,y,z forces =    2.4928E+00    4.3468E+04    0.0000E+00  setid=       0
             force resultants   =    8.0072E+01    6.2573E-10   -2.7799E+06
 output at time =   1.00000E-03
 node=     5 local x,y,z forces =    6.6038E+00   -8.6927E+04   -2.3846E+05  setid=       0
 node=    14 local x,y,z forces =    9.8801E+00   -5.4130E+04   -4.6490E+05  setid=       0
 node=    23 local x,y,z forces =    8.1694E+00   -3.0757E+04   -4.6164E+05  setid=       0
 node=    32 local x,y,z forces =    6.4004E+00   -2.0239E+04   -4.6204E+05  setid=       0
 node=    41 local x,y,z forces =    4.8762E+00   -1.1977E+04   -4.6152E+05  setid=       0
 node=    50 local x,y,z forces =    3.9681E+00   -5.6279E+03   -4.6142E+05  setid=       0
 node=    59 local x,y,z forces =    3.6285E+00   -4.8021E-10   -4.6126E+05  setid=       0
 node=    68 local x,y,z forces =    3.9681E+00    5.6279E+03   -4.6142E+05  setid=       0
 node=    77 local x,y,z forces =    4.8762E+00    1.1977E+04   -4.6152E+05  setid=       0
 node=    86 local x,y,z forces =    6.4004E+00    2.0239E+04   -4.6204E+05  setid=       0
 node=    95 local x,y,z forces =    8.1694E+00    3.0757E+04   -4.6164E+05  setid=       0
 node=   104 local x,y,z forces =    9.8801E+00    5.4130E+04   -4.6490E+05  setid=       0
 node=   113 local x,y,z forces =    6.6038E+00    8.6927E+04   -2.3846E+05  setid=       0
 node=  5855 local x,y,z forces =    6.6037E+00   -8.6927E+04    0.0000E+00  setid=       0
 node=  5864 local x,y,z forces =    9.8800E+00   -5.4130E+04    0.0000E+00  setid=       0
 node=  5873 local x,y,z forces =    8.1693E+00   -3.0757E+04    0.0000E+00  setid=       0
 node=  5882 local x,y,z forces =    6.4003E+00   -2.0239E+04    0.0000E+00  setid=       0
 node=  5891 local x,y,z forces =    4.8761E+00   -1.1977E+04    0.0000E+00  setid=       0
 node=  5900 local x,y,z forces =    3.9680E+00   -5.6279E+03    0.0000E+00  setid=       0
 node=  5909 local x,y,z forces =    3.6283E+00   -5.0932E-10    0.0000E+00  setid=       0
 node=  5918 local x,y,z forces =    3.9680E+00    5.6279E+03    0.0000E+00  setid=       0
 node=  5927 local x,y,z forces =    4.8761E+00    1.1977E+04    0.0000E+00  setid=       0
 node=  5936 local x,y,z forces =    6.4003E+00    2.0239E+04    0.0000E+00  setid=       0
 node=  5945 local x,y,z forces =    8.1693E+00    3.0757E+04    0.0000E+00  setid=       0
 node=  5954 local x,y,z forces =    9.8800E+00    5.4130E+04    0.0000E+00  setid=       0
 node=  5963 local x,y,z forces =    6.6037E+00    8.6927E+04    0.0000E+00  setid=       0
             force resultants   =    1.6685E+02    6.5484E-09   -5.5612E+06
 output at time =   1.50000E-03
 node=     5 local x,y,z forces =    1.5291E+03   -9.6934E+04   -2.6610E+05  setid=       0
 node=    14 local x,y,z forces =    1.1132E+03   -6.0363E+04   -5.1872E+05  setid=       0
 node=    23 local x,y,z forces =    4.0657E+02   -3.4298E+04   -5.1507E+05  setid=       0
 node=    32 local x,y,z forces =   -2.6786E+02   -2.2569E+04   -5.1549E+05  setid=       0
 node=    41 local x,y,z forces =   -8.7670E+02   -1.3356E+04   -5.1490E+05  setid=       0
 node=    50 local x,y,z forces =   -1.2254E+03   -6.2759E+03   -5.1478E+05  setid=       0
 node=    59 local x,y,z forces =   -1.3603E+03    1.8626E-09   -5.1459E+05  setid=       0
 node=    68 local x,y,z forces =   -1.2254E+03    6.2759E+03   -5.1478E+05  setid=       0
 node=    77 local x,y,z forces =   -8.7670E+02    1.3356E+04   -5.1490E+05  setid=       0
 node=    86 local x,y,z forces =   -2.6786E+02    2.2569E+04   -5.1549E+05  setid=       0
 node=    95 local x,y,z forces =    4.0657E+02    3.4298E+04   -5.1507E+05  setid=       0
 node=   104 local x,y,z forces =    1.1132E+03    6.0363E+04   -5.1872E+05  setid=       0
 node=   113 local x,y,z forces =    1.5291E+03    9.6934E+04   -2.6610E+05  setid=       0
 node=  5855 local x,y,z forces =    1.5291E+03   -9.6934E+04    0.0000E+00  setid=       0
 node=  5864 local x,y,z forces =    1.1132E+03   -6.0363E+04    0.0000E+00  setid=       0
 node=  5873 local x,y,z forces =    4.0657E+02   -3.4298E+04    0.0000E+00  setid=       0
 node=  5882 local x,y,z forces =   -2.6786E+02   -2.2569E+04    0.0000E+00  setid=       0
 node=  5891 local x,y,z forces =   -8.7670E+02   -1.3356E+04    0.0000E+00  setid=       0
 node=  5900 local x,y,z forces =   -1.2254E+03   -6.2759E+03    0.0000E+00  setid=       0
 node=  5909 local x,y,z forces =   -1.3603E+03    6.9267E-09    0.0000E+00  setid=       0
 node=  5918 local x,y,z forces =   -1.2254E+03    6.2759E+03    0.0000E+00  setid=       0
 node=  5927 local x,y,z forces =   -8.7670E+02    1.3356E+04    0.0000E+00  setid=       0
 node=  5936 local x,y,z forces =   -2.6786E+02    2.2569E+04    0.0000E+00  setid=       0
 node=  5945 local x,y,z forces =    4.0657E+02    3.4298E+04    0.0000E+00  setid=       0
 node=  5954 local x,y,z forces =    1.1132E+03    6.0363E+04    0.0000E+00  setid=       0
 node=  5963 local x,y,z forces =    1.5291E+03    9.6934E+04    0.0000E+00  setid=       0
             force resultants   =   -4.6241E+00   -7.7853E-09   -6.2047E+06
 output at time =   2.00000E-03
 node=     5 local x,y,z forces =    2.3222E+03   -9.6966E+04   -2.6629E+05  setid=       0
 node=    14 local x,y,z forces =    1.6975E+03   -6.0362E+04   -5.1903E+05  setid=       0
 node=    23 local x,y,z forces =    6.2701E+02   -3.4297E+04   -5.1535E+05  setid=       0
 node=    32 local x,y,z forces =   -3.9452E+02   -2.2569E+04   -5.1575E+05  setid=       0
 node=    41 local x,y,z forces =   -1.3168E+03   -1.3355E+04   -5.1514E+05  setid=       0
 node=    50 local x,y,z forces =   -1.8449E+03   -6.2757E+03   -5.1500E+05  setid=       0
 node=    59 local x,y,z forces =   -2.0494E+03   -2.4011E-09   -5.1481E+05  setid=       0
 node=    68 local x,y,z forces =   -1.8449E+03    6.2757E+03   -5.1500E+05  setid=       0
 node=    77 local x,y,z forces =   -1.3168E+03    1.3355E+04   -5.1514E+05  setid=       0
 node=    86 local x,y,z forces =   -3.9452E+02    2.2569E+04   -5.1575E+05  setid=       0
 node=    95 local x,y,z forces =    6.2701E+02    3.4297E+04   -5.1535E+05  setid=       0
 node=   104 local x,y,z forces =    1.6975E+03    6.0362E+04   -5.1903E+05  setid=       0
 node=   113 local x,y,z forces =    2.3222E+03    9.6966E+04   -2.6629E+05  setid=       0
 node=  5855 local x,y,z forces =    2.2974E+03   -9.6967E+04    0.0000E+00  setid=       0
 node=  5864 local x,y,z forces =    1.6470E+03   -6.0362E+04    0.0000E+00  setid=       0
 node=  5873 local x,y,z forces =    5.7651E+02   -3.4297E+04    0.0000E+00  setid=       0
 node=  5882 local x,y,z forces =   -4.4512E+02   -2.2569E+04    0.0000E+00  setid=       0
 node=  5891 local x,y,z forces =   -1.3674E+03   -1.3355E+04    0.0000E+00  setid=       0
 node=  5900 local x,y,z forces =   -1.8956E+03   -6.2757E+03    0.0000E+00  setid=       0
 node=  5909 local x,y,z forces =   -2.1001E+03    3.6380E-09    0.0000E+00  setid=       0
 node=  5918 local x,y,z forces =   -1.8956E+03    6.2757E+03    0.0000E+00  setid=       0
 node=  5927 local x,y,z forces =   -1.3674E+03    1.3355E+04    0.0000E+00  setid=       0
 node=  5936 local x,y,z forces =   -4.4512E+02    2.2569E+04    0.0000E+00  setid=       0
 node=  5945 local x,y,z forces =    5.7651E+02    3.4297E+04    0.0000E+00  setid=       0
 node=  5954 local x,y,z forces =    1.6470E+03    6.0362E+04    0.0000E+00  setid=       0
 node=  5963 local x,y,z forces =    2.2974E+03    9.6967E+04    0.0000E+00  setid=       0
             force resultants   =   -3.4287E+02    1.3184E-08   -6.2079E+06
 output at time =   2.50000E-03
 node=     5 local x,y,z forces =    2.9010E+03   -9.6883E+04   -2.6641E+05  setid=       0
 node=    14 local x,y,z forces =    2.1159E+03   -6.0350E+04   -5.1920E+05  setid=       0
 node=    23 local x,y,z forces =    7.7615E+02   -3.4290E+04   -5.1550E+05  setid=       0
 node=    32 local x,y,z forces =   -5.0227E+02   -2.2564E+04   -5.1587E+05  setid=       0
 node=    41 local x,y,z forces =   -1.6563E+03   -1.3352E+04   -5.1523E+05  setid=       0
 node=    50 local x,y,z forces =   -2.3171E+03   -6.2745E+03   -5.1508E+05  setid=       0
 node=    59 local x,y,z forces =   -2.5729E+03    1.0623E-09   -5.1489E+05  setid=       0
 node=    68 local x,y,z forces =   -2.3171E+03    6.2745E+03   -5.1508E+05  setid=       0
 node=    77 local x,y,z forces =   -1.6563E+03    1.3352E+04   -5.1523E+05  setid=       0
 node=    86 local x,y,z forces =   -5.0227E+02    2.2564E+04   -5.1587E+05  setid=       0
 node=    95 local x,y,z forces =    7.7615E+02    3.4290E+04   -5.1550E+05  setid=       0
 node=   104 local x,y,z forces =    2.1159E+03    6.0350E+04   -5.1920E+05  setid=       0
 node=   113 local x,y,z forces =    2.9010E+03    9.6883E+04   -2.6641E+05  setid=       0
 node=  5855 local x,y,z forces =    2.8959E+03   -9.6883E+04    0.0000E+00  setid=       0
 node=  5864 local x,y,z forces =    2.1054E+03   -6.0350E+04    0.0000E+00  setid=       0
 node=  5873 local x,y,z forces =    7.6573E+02   -3.4290E+04    0.0000E+00  setid=       0
 node=  5882 local x,y,z forces =   -5.1269E+02   -2.2564E+04    0.0000E+00  setid=       0
 node=  5891 local x,y,z forces =   -1.6667E+03   -1.3352E+04    0.0000E+00  setid=       0
 node=  5900 local x,y,z forces =   -2.3275E+03   -6.2745E+03    0.0000E+00  setid=       0
 node=  5909 local x,y,z forces =   -2.5833E+03   -2.4738E-10    0.0000E+00  setid=       0
 node=  5918 local x,y,z forces =   -2.3275E+03    6.2745E+03    0.0000E+00  setid=       0
 node=  5927 local x,y,z forces =   -1.6667E+03    1.3352E+04    0.0000E+00  setid=       0
 node=  5936 local x,y,z forces =   -5.1269E+02    2.2564E+04    0.0000E+00  setid=       0
 node=  5945 local x,y,z forces =    7.6573E+02    3.4290E+04    0.0000E+00  setid=       0
 node=  5954 local x,y,z forces =    2.1054E+03    6.0350E+04    0.0000E+00  setid=       0
 node=  5963 local x,y,z forces =    2.8959E+03    9.6883E+04    0.0000E+00  setid=       0
             force resultants   =   -9.9438E-01    1.3242E-09   -6.2095E+06
 output at time =   3.00000E-03
 node=     5 local x,y,z forces =    3.3780E+03   -9.6711E+04   -2.6637E+05  setid=       0
 node=    14 local x,y,z forces =    2.4579E+03   -6.0302E+04   -5.1905E+05  setid=       0
 node=    23 local x,y,z forces =    8.9433E+02   -3.4263E+04   -5.1532E+05  setid=       0
 node=    32 local x,y,z forces =   -5.9764E+02   -2.2547E+04   -5.1567E+05  setid=       0
 node=    41 local x,y,z forces =   -1.9441E+03   -1.3342E+04   -5.1501E+05  setid=       0
 node=    50 local x,y,z forces =   -2.7151E+03   -6.2695E+03   -5.1485E+05  setid=       0
 node=    59 local x,y,z forces =   -3.0135E+03   -9.7498E-10   -5.1464E+05  setid=       0
 node=    68 local x,y,z forces =   -2.7151E+03    6.2695E+03   -5.1485E+05  setid=       0
 node=    77 local x,y,z forces =   -1.9441E+03    1.3342E+04   -5.1501E+05  setid=       0
 node=    86 local x,y,z forces =   -5.9764E+02    2.2547E+04   -5.1567E+05  setid=       0
 node=    95 local x,y,z forces =    8.9433E+02    3.4263E+04   -5.1532E+05  setid=       0
 node=   104 local x,y,z forces =    2.4579E+03    6.0302E+04   -5.1905E+05  setid=       0
 node=   113 local x,y,z forces =    3.3780E+03    9.6711E+04   -2.6637E+05  setid=       0
 node=  5855 local x,y,z forces =    3.4071E+03   -9.6727E+04    0.0000E+00  setid=       0
 node=  5864 local x,y,z forces =    2.5167E+03   -6.0303E+04    0.0000E+00  setid=       0
 node=  5873 local x,y,z forces =    9.5316E+02   -3.4263E+04    0.0000E+00  setid=       0
 node=  5882 local x,y,z forces =   -5.3866E+02   -2.2547E+04    0.0000E+00  setid=       0
 node=  5891 local x,y,z forces =   -1.8850E+03   -1.3342E+04    0.0000E+00  setid=       0
 node=  5900 local x,y,z forces =   -2.6559E+03   -6.2696E+03    0.0000E+00  setid=       0
 node=  5909 local x,y,z forces =   -2.9543E+03    1.6880E-09    0.0000E+00  setid=       0
 node=  5918 local x,y,z forces =   -2.6559E+03    6.2696E+03    0.0000E+00  setid=       0
 node=  5927 local x,y,z forces =   -1.8850E+03    1.3342E+04    0.0000E+00  setid=       0
 node=  5936 local x,y,z forces =   -5.3866E+02    2.2547E+04    0.0000E+00  setid=       0
 node=  5945 local x,y,z forces =    9.5316E+02    3.4263E+04    0.0000E+00  setid=       0
 node=  5954 local x,y,z forces =    2.5167E+03    6.0303E+04    0.0000E+00  setid=       0
 node=  5963 local x,y,z forces =    3.4071E+03    9.6727E+04    0.0000E+00  setid=       0
             force resultants   =    5.7373E+02    3.5070E-09   -6.2071E+06
 output at time =   3.50000E-03
 node=     5 local x,y,z forces =    3.8007E+03   -9.6771E+04   -2.6655E+05  setid=       0
 node=    14 local x,y,z forces =    2.7662E+03   -6.0297E+04   -5.1933E+05  setid=       0
 node=    23 local x,y,z forces =    1.0085E+03   -3.4260E+04   -5.1558E+05  setid=       0
 node=    32 local x,y,z forces =   -6.6858E+02   -2.2544E+04   -5.1590E+05  setid=       0
 node=    41 local x,y,z forces =   -2.1824E+03   -1.3341E+04   -5.1522E+05  setid=       0
 node=    50 local x,y,z forces =   -3.0492E+03   -6.2689E+03   -5.1505E+05  setid=       0
 node=    59 local x,y,z forces =   -3.3848E+03    2.2992E-09   -5.1484E+05  setid=       0
 node=    68 local x,y,z forces =   -3.0492E+03    6.2689E+03   -5.1505E+05  setid=       0
 node=    77 local x,y,z forces =   -2.1824E+03    1.3341E+04   -5.1522E+05  setid=       0
 node=    86 local x,y,z forces =   -6.6858E+02    2.2544E+04   -5.1590E+05  setid=       0
 node=    95 local x,y,z forces =    1.0085E+03    3.4260E+04   -5.1558E+05  setid=       0
 node=   104 local x,y,z forces =    2.7662E+03    6.0297E+04   -5.1933E+05  setid=       0
 node=   113 local x,y,z forces =    3.8007E+03    9.6771E+04   -2.6655E+05  setid=       0
 node=  5855 local x,y,z forces =    3.8132E+03   -9.6778E+04    0.0000E+00  setid=       0
 node=  5864 local x,y,z forces =    2.7914E+03   -6.0297E+04    0.0000E+00  setid=       0
 node=  5873 local x,y,z forces =    1.0338E+03   -3.4260E+04    0.0000E+00  setid=       0
 node=  5882 local x,y,z forces =   -6.4328E+02   -2.2544E+04    0.0000E+00  setid=       0
 node=  5891 local x,y,z forces =   -2.1571E+03   -1.3341E+04    0.0000E+00  setid=       0
 node=  5900 local x,y,z forces =   -3.0239E+03   -6.2689E+03    0.0000E+00  setid=       0
 node=  5909 local x,y,z forces =   -3.3594E+03   -1.8190E-09    0.0000E+00  setid=       0
 node=  5918 local x,y,z forces =   -3.0239E+03    6.2689E+03    0.0000E+00  setid=       0
 node=  5927 local x,y,z forces =   -2.1571E+03    1.3341E+04    0.0000E+00  setid=       0
 node=  5936 local x,y,z forces =   -6.4328E+02    2.2544E+04    0.0000E+00  setid=       0
 node=  5945 local x,y,z forces =    1.0338E+03    3.4260E+04    0.0000E+00  setid=       0
 node=  5954 local x,y,z forces =    2.7914E+03    6.0297E+04    0.0000E+00  setid=       0
 node=  5963 local x,y,z forces =    3.8132E+03    9.6778E+04    0.0000E+00  setid=       0
             force resultants   =    2.3442E+02   -9.7498E-10   -6.2101E+06
 output at time =   4.00000E-03
 node=     5 local x,y,z forces =    4.1795E+03   -9.6777E+04   -2.6668E+05  setid=       0
 node=    14 local x,y,z forces =    3.0421E+03   -6.0282E+04   -5.1952E+05  setid=       0
 node=    23 local x,y,z forces =    1.1099E+03   -3.4251E+04   -5.1574E+05  setid=       0
 node=    32 local x,y,z forces =   -7.3361E+02   -2.2539E+04   -5.1604E+05  setid=       0
 node=    41 local x,y,z forces =   -2.3978E+03   -1.3337E+04   -5.1534E+05  setid=       0
 node=    50 local x,y,z forces =   -3.3508E+03   -6.2673E+03   -5.1516E+05  setid=       0
 node=    59 local x,y,z forces =   -3.7197E+03    1.2951E-09   -5.1494E+05  setid=       0
 node=    68 local x,y,z forces =   -3.3508E+03    6.2673E+03   -5.1516E+05  setid=       0
 node=    77 local x,y,z forces =   -2.3978E+03    1.3337E+04   -5.1534E+05  setid=       0
 node=    86 local x,y,z forces =   -7.3361E+02    2.2539E+04   -5.1604E+05  setid=       0
 node=    95 local x,y,z forces =    1.1099E+03    3.4251E+04   -5.1574E+05  setid=       0
 node=   104 local x,y,z forces =    3.0421E+03    6.0282E+04   -5.1952E+05  setid=       0
 node=   113 local x,y,z forces =    4.1795E+03    9.6777E+04   -2.6668E+05  setid=       0
 node=  5855 local x,y,z forces =    4.1856E+03   -9.6780E+04    0.0000E+00  setid=       0
 node=  5864 local x,y,z forces =    3.0545E+03   -6.0282E+04    0.0000E+00  setid=       0
 node=  5873 local x,y,z forces =    1.1224E+03   -3.4251E+04    0.0000E+00  setid=       0
 node=  5882 local x,y,z forces =   -7.2117E+02   -2.2539E+04    0.0000E+00  setid=       0
 node=  5891 local x,y,z forces =   -2.3854E+03   -1.3337E+04    0.0000E+00  setid=       0
 node=  5900 local x,y,z forces =   -3.3383E+03   -6.2673E+03    0.0000E+00  setid=       0
 node=  5909 local x,y,z forces =   -3.7072E+03   -1.9936E-09    0.0000E+00  setid=       0
 node=  5918 local x,y,z forces =   -3.3383E+03    6.2673E+03    0.0000E+00  setid=       0
 node=  5927 local x,y,z forces =   -2.3854E+03    1.3337E+04    0.0000E+00  setid=       0
 node=  5936 local x,y,z forces =   -7.2117E+02    2.2539E+04    0.0000E+00  setid=       0
 node=  5945 local x,y,z forces =    1.1224E+03    3.4251E+04    0.0000E+00  setid=       0
 node=  5954 local x,y,z forces =    3.0545E+03    6.0282E+04    0.0000E+00  setid=       0
 node=  5963 local x,y,z forces =    4.1856E+03    9.6780E+04    0.0000E+00  setid=       0
             force resultants   =    1.0696E+02    6.4028E-10   -6.2119E+06
 output at time =   4.50000E-03
 node=     5 local x,y,z forces =    4.5258E+03   -9.6762E+04   -2.6679E+05  setid=       0
 node=    14 local x,y,z forces =    3.2943E+03   -6.0264E+04   -5.1968E+05  setid=       0
 node=    23 local x,y,z forces =    1.2024E+03   -3.4240E+04   -5.1587E+05  setid=       0
 node=    32 local x,y,z forces =   -7.9352E+02   -2.2532E+04   -5.1615E+05  setid=       0
 node=    41 local x,y,z forces =   -2.5954E+03   -1.3333E+04   -5.1542E+05  setid=       0
 node=    50 local x,y,z forces =   -3.6271E+03   -6.2653E+03   -5.1522E+05  setid=       0
 node=    59 local x,y,z forces =   -4.0265E+03    1.8044E-09   -5.1501E+05  setid=       0
 node=    68 local x,y,z forces =   -3.6271E+03    6.2653E+03   -5.1522E+05  setid=       0
 node=    77 local x,y,z forces =   -2.5954E+03    1.3333E+04   -5.1542E+05  setid=       0
 node=    86 local x,y,z forces =   -7.9352E+02    2.2532E+04   -5.1615E+05  setid=       0
 node=    95 local x,y,z forces =    1.2024E+03    3.4240E+04   -5.1587E+05  setid=       0
 node=   104 local x,y,z forces =    3.2943E+03    6.0264E+04   -5.1968E+05  setid=       0
 node=   113 local x,y,z forces =    4.5258E+03    9.6762E+04   -2.6679E+05  setid=       0
 node=  5855 local x,y,z forces =    4.5292E+03   -9.6764E+04    0.0000E+00  setid=       0
 node=  5864 local x,y,z forces =    3.3010E+03   -6.0264E+04    0.0000E+00  setid=       0
 node=  5873 local x,y,z forces =    1.2092E+03   -3.4240E+04    0.0000E+00  setid=       0
 node=  5882 local x,y,z forces =   -7.8672E+02   -2.2532E+04    0.0000E+00  setid=       0
 node=  5891 local x,y,z forces =   -2.5886E+03   -1.3333E+04    0.0000E+00  setid=       0
 node=  5900 local x,y,z forces =   -3.6203E+03   -6.2653E+03    0.0000E+00  setid=       0
 node=  5909 local x,y,z forces =   -4.0197E+03    7.2760E-10    0.0000E+00  setid=       0
 node=  5918 local x,y,z forces =   -3.6203E+03    6.2653E+03    0.0000E+00  setid=       0
 node=  5927 local x,y,z forces =   -2.5886E+03    1.3333E+04    0.0000E+00  setid=       0
 node=  5936 local x,y,z forces =   -7.8672E+02    2.2532E+04    0.0000E+00  setid=       0
 node=  5945 local x,y,z forces =    1.2092E+03    3.4240E+04    0.0000E+00  setid=       0
 node=  5954 local x,y,z forces =    3.3010E+03    6.0264E+04    0.0000E+00  setid=       0
 node=  5963 local x,y,z forces =    4.5292E+03    9.6764E+04    0.0000E+00  setid=       0
             force resultants   =    5.4423E+01    2.4011E-09   -6.2133E+06
 output at time =   5.00000E-03
 node=     5 local x,y,z forces =    4.8505E+03   -9.6812E+04   -2.6694E+05  setid=       0
 node=    14 local x,y,z forces =    3.5326E+03   -6.0249E+04   -5.1989E+05  setid=       0
 node=    23 local x,y,z forces =    1.2944E+03   -3.4232E+04   -5.1606E+05  setid=       0
 node=    32 local x,y,z forces =   -8.4117E+02   -2.2526E+04   -5.1631E+05  setid=       0
 node=    41 local x,y,z forces =   -2.7698E+03   -1.3330E+04   -5.1556E+05  setid=       0
 node=    50 local x,y,z forces =   -3.8741E+03   -6.2637E+03   -5.1535E+05  setid=       0
 node=    59 local x,y,z forces =   -4.3016E+03    1.0041E-09   -5.1513E+05  setid=       0
 node=    68 local x,y,z forces =   -3.8741E+03    6.2637E+03   -5.1535E+05  setid=       0
 node=    77 local x,y,z forces =   -2.7698E+03    1.3330E+04   -5.1556E+05  setid=       0
 node=    86 local x,y,z forces =   -8.4117E+02    2.2526E+04   -5.1631E+05  setid=       0
 node=    95 local x,y,z forces =    1.2944E+03    3.4232E+04   -5.1606E+05  setid=       0
 node=   104 local x,y,z forces =    3.5326E+03    6.0249E+04   -5.1989E+05  setid=       0
 node=   113 local x,y,z forces =    4.8505E+03    9.6812E+04   -2.6694E+05  setid=       0
 node=  5855 local x,y,z forces =    4.8729E+03   -9.6809E+04    0.0000E+00  setid=       0
 node=  5864 local x,y,z forces =    3.5783E+03   -6.0249E+04    0.0000E+00  setid=       0
 node=  5873 local x,y,z forces =    1.3402E+03   -3.4232E+04    0.0000E+00  setid=       0
 node=  5882 local x,y,z forces =   -7.9519E+02   -2.2526E+04    0.0000E+00  setid=       0
 node=  5891 local x,y,z forces =   -2.7237E+03   -1.3330E+04    0.0000E+00  setid=       0
 node=  5900 local x,y,z forces =   -3.8279E+03   -6.2638E+03    0.0000E+00  setid=       0
 node=  5909 local x,y,z forces =   -4.2554E+03   -1.7171E-09    0.0000E+00  setid=       0
 node=  5918 local x,y,z forces =   -3.8279E+03    6.2638E+03    0.0000E+00  setid=       0
 node=  5927 local x,y,z forces =   -2.7237E+03    1.3330E+04    0.0000E+00  setid=       0
 node=  5936 local x,y,z forces =   -7.9519E+02    2.2526E+04    0.0000E+00  setid=       0
 node=  5945 local x,y,z forces =    1.3402E+03    3.4232E+04    0.0000E+00  setid=       0
 node=  5954 local x,y,z forces =    3.5783E+03    6.0249E+04    0.0000E+00  setid=       0
 node=  5963 local x,y,z forces =    4.8729E+03    9.6809E+04    0.0000E+00  setid=       0
             force resultants   =    7.1701E+02    5.7044E-09   -6.2153E+06
 output at time =   5.50000E-03
 node=     5 local x,y,z forces =    5.1496E+03   -9.6755E+04   -2.6702E+05  setid=       0
 node=    14 local x,y,z forces =    3.7499E+03   -6.0226E+04   -5.1999E+05  setid=       0
 node=    23 local x,y,z forces =    1.3726E+03   -3.4219E+04   -5.1613E+05  setid=       0
 node=    32 local x,y,z forces =   -8.9567E+02   -2.2517E+04   -5.1636E+05  setid=       0
 node=    41 local x,y,z forces =   -2.9439E+03   -1.3325E+04   -5.1559E+05  setid=       0
 node=    50 local x,y,z forces =   -4.1167E+03   -6.2613E+03   -5.1536E+05  setid=       0
 node=    59 local x,y,z forces =   -4.5708E+03    1.1933E-09   -5.1514E+05  setid=       0
 node=    68 local x,y,z forces =   -4.1167E+03    6.2613E+03   -5.1536E+05  setid=       0
 node=    77 local x,y,z forces =   -2.9439E+03    1.3325E+04   -5.1559E+05  setid=       0
 node=    86 local x,y,z forces =   -8.9567E+02    2.2517E+04   -5.1636E+05  setid=       0
 node=    95 local x,y,z forces =    1.3726E+03    3.4219E+04   -5.1613E+05  setid=       0
 node=   104 local x,y,z forces =    3.7499E+03    6.0226E+04   -5.1999E+05  setid=       0
 node=   113 local x,y,z forces =    5.1496E+03    9.6755E+04   -2.6702E+05  setid=       0
 node=  5855 local x,y,z forces =    5.1665E+03   -9.6753E+04    0.0000E+00  setid=       0
 node=  5864 local x,y,z forces =    3.7843E+03   -6.0226E+04    0.0000E+00  setid=       0
 node=  5873 local x,y,z forces =    1.4071E+03   -3.4219E+04    0.0000E+00  setid=       0
 node=  5882 local x,y,z forces =   -8.6104E+02   -2.2517E+04    0.0000E+00  setid=       0
 node=  5891 local x,y,z forces =   -2.9092E+03   -1.3325E+04    0.0000E+00  setid=       0
 node=  5900 local x,y,z forces =   -4.0819E+03   -6.2614E+03    0.0000E+00  setid=       0
 node=  5909 local x,y,z forces =   -4.5360E+03    0.0000E+00    0.0000E+00  setid=       0
 node=  5918 local x,y,z forces =   -4.0819E+03    6.2614E+03    0.0000E+00  setid=       0
 node=  5927 local x,y,z forces =   -2.9092E+03    1.3325E+04    0.0000E+00  setid=       0
 node=  5936 local x,y,z forces =   -8.6104E+02    2.2517E+04    0.0000E+00  setid=       0
 node=  5945 local x,y,z forces =    1.4071E+03    3.4219E+04    0.0000E+00  setid=       0
 node=  5954 local x,y,z forces =    3.7843E+03    6.0226E+04    0.0000E+00  setid=       0
 node=  5963 local x,y,z forces =    5.1665E+03    9.6753E+04    0.0000E+00  setid=       0
             force resultants   =    5.3626E+02    1.2747E-08   -6.2160E+06
 output at time =   6.00000E-03
 node=     5 local x,y,z forces =    5.4319E+03   -9.6706E+04   -2.6711E+05  setid=       0
 node=    14 local x,y,z forces =    3.9550E+03   -6.0203E+04   -5.2009E+05  setid=       0
 node=    23 local x,y,z forces =    1.4467E+03   -3.4205E+04   -5.1620E+05  setid=       0
 node=    32 local x,y,z forces =   -9.4662E+02   -2.2509E+04   -5.1641E+05  setid=       0
 node=    41 local x,y,z forces =   -3.1077E+03   -1.3319E+04   -5.1562E+05  setid=       0
 node=    50 local x,y,z forces =   -4.3450E+03   -6.2589E+03   -5.1538E+05  setid=       0
 node=    59 local x,y,z forces =   -4.8241E+03    8.7311E-11   -5.1515E+05  setid=       0
 node=    68 local x,y,z forces =   -4.3450E+03    6.2589E+03   -5.1538E+05  setid=       0
 node=    77 local x,y,z forces =   -3.1077E+03    1.3319E+04   -5.1562E+05  setid=       0
 node=    86 local x,y,z forces =   -9.4662E+02    2.2509E+04   -5.1641E+05  setid=       0
 node=    95 local x,y,z forces =    1.4467E+03    3.4205E+04   -5.1620E+05  setid=       0
 node=   104 local x,y,z forces =    3.9550E+03    6.0203E+04   -5.2009E+05  setid=       0
 node=   113 local x,y,z forces =    5.4319E+03    9.6706E+04   -2.6711E+05  setid=       0
 node=  5855 local x,y,z forces =    5.4449E+03   -9.6705E+04    0.0000E+00  setid=       0
 node=  5864 local x,y,z forces =    3.9816E+03   -6.0204E+04    0.0000E+00  setid=       0
 node=  5873 local x,y,z forces =    1.4733E+03   -3.4206E+04    0.0000E+00  setid=       0
 node=  5882 local x,y,z forces =   -9.1990E+02   -2.2509E+04    0.0000E+00  setid=       0
 node=  5891 local x,y,z forces =   -3.0809E+03   -1.3320E+04    0.0000E+00  setid=       0
 node=  5900 local x,y,z forces =   -4.3182E+03   -6.2590E+03    0.0000E+00  setid=       0
 node=  5909 local x,y,z forces =   -4.7972E+03   -4.9185E-09    0.0000E+00  setid=       0
 node=  5918 local x,y,z forces =   -4.3182E+03    6.2590E+03    0.0000E+00  setid=       0
 node=  5927 local x,y,z forces =   -3.0809E+03    1.3320E+04    0.0000E+00  setid=       0
 node=  5936 local x,y,z forces =   -9.1990E+02    2.2509E+04    0.0000E+00  setid=       0
 node=  5945 local x,y,z forces =    1.4733E+03    3.4206E+04    0.0000E+00  setid=       0
 node=  5954 local x,y,z forces =    3.9816E+03    6.0204E+04    0.0000E+00  setid=       0
 node=  5963 local x,y,z forces =    5.4449E+03    9.6705E+04    0.0000E+00  setid=       0
             force resultants   =    4.0898E+02   -3.1287E-09   -6.2168E+06
 output at time =   6.50000E-03
 node=     5 local x,y,z forces =    5.6998E+03   -9.6663E+04   -2.6720E+05  setid=       0
 node=    14 local x,y,z forces =    4.1498E+03   -6.0181E+04   -5.2019E+05  setid=       0
 node=    23 local x,y,z forces =    1.5172E+03   -3.4192E+04   -5.1628E+05  setid=       0
 node=    32 local x,y,z forces =   -9.9462E+02   -2.2500E+04   -5.1646E+05  setid=       0
 node=    41 local x,y,z forces =   -3.2626E+03   -1.3314E+04   -5.1565E+05  setid=       0
 node=    50 local x,y,z forces =   -4.5612E+03   -6.2565E+03   -5.1540E+05  setid=       0
 node=    59 local x,y,z forces =   -5.0639E+03   -1.2515E-09   -5.1517E+05  setid=       0
 node=    68 local x,y,z forces =   -4.5612E+03    6.2565E+03   -5.1540E+05  setid=       0
 node=    77 local x,y,z forces =   -3.2626E+03    1.3314E+04   -5.1565E+05  setid=       0
 node=    86 local x,y,z forces =   -9.9462E+02    2.2500E+04   -5.1646E+05  setid=       0
 node=    95 local x,y,z forces =    1.5172E+03    3.4192E+04   -5.1628E+05  setid=       0
 node=   104 local x,y,z forces =    4.1498E+03    6.0181E+04   -5.2019E+05  setid=       0
 node=   113 local x,y,z forces =    5.6998E+03    9.6663E+04   -2.6720E+05  setid=       0
 node=  5855 local x,y,z forces =    5.7100E+03   -9.6662E+04    0.0000E+00  setid=       0
 node=  5864 local x,y,z forces =    4.1707E+03   -6.0181E+04    0.0000E+00  setid=       0
 node=  5873 local x,y,z forces =    1.5382E+03   -3.4193E+04    0.0000E+00  setid=       0
 node=  5882 local x,y,z forces =   -9.7352E+02   -2.2500E+04    0.0000E+00  setid=       0
 node=  5891 local x,y,z forces =   -3.2414E+03   -1.3314E+04    0.0000E+00  setid=       0
 node=  5900 local x,y,z forces =   -4.5400E+03   -6.2566E+03    0.0000E+00  setid=       0
 node=  5909 local x,y,z forces =   -5.0427E+03   -2.8376E-09    0.0000E+00  setid=       0
 node=  5918 local x,y,z forces =   -4.5400E+03    6.2566E+03    0.0000E+00  setid=       0
 node=  5927 local x,y,z forces =   -3.2414E+03    1.3314E+04    0.0000E+00  setid=       0
 node=  5936 local x,y,z forces =   -9.7352E+02    2.2500E+04    0.0000E+00  setid=       0
 node=  5945 local x,y,z forces =    1.5382E+03    3.4193E+04    0.0000E+00  setid=       0
 node=  5954 local x,y,z forces =    4.1707E+03    6.0181E+04    0.0000E+00  setid=       0
 node=  5963 local x,y,z forces =    5.7100E+03    9.6662E+04    0.0000E+00  setid=       0
             force resultants   =    3.1830E+02   -8.1782E-09   -6.2175E+06
 output at time =   7.00000E-03
 node=     5 local x,y,z forces =    5.9552E+03   -9.6622E+04   -2.6729E+05  setid=       0
 node=    14 local x,y,z forces =    4.3355E+03   -6.0158E+04   -5.2030E+05  setid=       0
 node=    23 local x,y,z forces =    1.5846E+03   -3.4179E+04   -5.1636E+05  setid=       0
 node=    32 local x,y,z forces =   -1.0401E+03   -2.2492E+04   -5.1652E+05  setid=       0
 node=    41 local x,y,z forces =   -3.4100E+03   -1.3309E+04   -5.1568E+05  setid=       0
 node=    50 local x,y,z forces =   -4.7669E+03   -6.2541E+03   -5.1543E+05  setid=       0
 node=    59 local x,y,z forces =   -5.2922E+03    1.3097E-09   -5.1518E+05  setid=       0
 node=    68 local x,y,z forces =   -4.7669E+03    6.2541E+03   -5.1543E+05  setid=       0
 node=    77 local x,y,z forces =   -3.4100E+03    1.3309E+04   -5.1568E+05  setid=       0
 node=    86 local x,y,z forces =   -1.0401E+03    2.2492E+04   -5.1652E+05  setid=       0
 node=    95 local x,y,z forces =    1.5846E+03    3.4179E+04   -5.1636E+05  setid=       0
 node=   104 local x,y,z forces =    4.3355E+03    6.0158E+04   -5.2030E+05  setid=       0
 node=   113 local x,y,z forces =    5.9552E+03    9.6622E+04   -2.6729E+05  setid=       0
 node=  5855 local x,y,z forces =    5.9635E+03   -9.6621E+04    0.0000E+00  setid=       0
 node=  5864 local x,y,z forces =    4.3524E+03   -6.0158E+04    0.0000E+00  setid=       0
 node=  5873 local x,y,z forces =    1.6015E+03   -3.4179E+04    0.0000E+00  setid=       0
 node=  5882 local x,y,z forces =   -1.0231E+03   -2.2492E+04    0.0000E+00  setid=       0
 node=  5891 local x,y,z forces =   -3.3929E+03   -1.3309E+04    0.0000E+00  setid=       0
 node=  5900 local x,y,z forces =   -4.7498E+03   -6.2542E+03    0.0000E+00  setid=       0
 node=  5909 local x,y,z forces =   -5.2752E+03   -3.3760E-09    0.0000E+00  setid=       0
 node=  5918 local x,y,z forces =   -4.7498E+03    6.2542E+03    0.0000E+00  setid=       0
 node=  5927 local x,y,z forces =   -3.3929E+03    1.3309E+04    0.0000E+00  setid=       0
 node=  5936 local x,y,z forces =   -1.0231E+03    2.2492E+04    0.0000E+00  setid=       0
 node=  5945 local x,y,z forces =    1.6015E+03    3.4179E+04    0.0000E+00  setid=       0
 node=  5954 local x,y,z forces =    4.3524E+03    6.0158E+04    0.0000E+00  setid=       0
 node=  5963 local x,y,z forces =    5.9635E+03    9.6621E+04    0.0000E+00  setid=       0
             force resultants   =    2.5208E+02    3.4051E-09   -6.2183E+06
 output at time =   7.50000E-03
 node=     5 local x,y,z forces =    6.1997E+03   -9.6582E+04   -2.6738E+05  setid=       0
 node=    14 local x,y,z forces =    4.5133E+03   -6.0136E+04   -5.2041E+05  setid=       0
 node=    23 local x,y,z forces =    1.6492E+03   -3.4166E+04   -5.1645E+05  setid=       0
 node=    32 local x,y,z forces =   -1.0835E+03   -2.2483E+04   -5.1658E+05  setid=       0
 node=    41 local x,y,z forces =   -3.5508E+03   -1.3304E+04   -5.1572E+05  setid=       0
 node=    50 local x,y,z forces =   -4.9635E+03   -6.2518E+03   -5.1545E+05  setid=       0
 node=    59 local x,y,z forces =   -5.5105E+03    2.4593E-09   -5.1520E+05  setid=       0
 node=    68 local x,y,z forces =   -4.9635E+03    6.2518E+03   -5.1545E+05  setid=       0
 node=    77 local x,y,z forces =   -3.5508E+03    1.3304E+04   -5.1572E+05  setid=       0
 node=    86 local x,y,z forces =   -1.0835E+03    2.2483E+04   -5.1658E+05  setid=       0
 node=    95 local x,y,z forces =    1.6492E+03    3.4166E+04   -5.1645E+05  setid=       0
 node=   104 local x,y,z forces =    4.5133E+03    6.0136E+04   -5.2041E+05  setid=       0
 node=   113 local x,y,z forces =    6.1997E+03    9.6582E+04   -2.6738E+05  setid=       0
 node=  5855 local x,y,z forces =    6.2065E+03   -9.6582E+04    0.0000E+00  setid=       0
 node=  5864 local x,y,z forces =    4.5271E+03   -6.0136E+04    0.0000E+00  setid=       0
 node=  5873 local x,y,z forces =    1.6630E+03   -3.4166E+04    0.0000E+00  setid=       0
 node=  5882 local x,y,z forces =   -1.0696E+03   -2.2483E+04    0.0000E+00  setid=       0
 node=  5891 local x,y,z forces =   -3.5369E+03   -1.3304E+04    0.0000E+00  setid=       0
 node=  5900 local x,y,z forces =   -4.9496E+03   -6.2518E+03    0.0000E+00  setid=       0
 node=  5909 local x,y,z forces =   -5.4965E+03   -9.9462E-09    0.0000E+00  setid=       0
 node=  5918 local x,y,z forces =   -4.9496E+03    6.2518E+03    0.0000E+00  setid=       0
 node=  5927 local x,y,z forces =   -3.5369E+03    1.3304E+04    0.0000E+00  setid=       0
 node=  5936 local x,y,z forces =   -1.0696E+03    2.2483E+04    0.0000E+00  setid=       0
 node=  5945 local x,y,z forces =    1.6630E+03    3.4166E+04    0.0000E+00  setid=       0
 node=  5954 local x,y,z forces =    4.5271E+03    6.0136E+04    0.0000E+00  setid=       0
 node=  5963 local x,y,z forces =    6.2065E+03    9.6582E+04    0.0000E+00  setid=       0
             force resultants   =    2.0266E+02    1.0405E-08   -6.2192E+06
 output at time =   8.00000E-03
 node=     5 local x,y,z forces =    6.4345E+03   -9.6544E+04   -2.6747E+05  setid=       0
 node=    14 local x,y,z forces =    4.6840E+03   -6.0113E+04   -5.2052E+05  setid=       0
 node=    23 local x,y,z forces =    1.7113E+03   -3.4153E+04   -5.1653E+05  setid=       0
 node=    32 local x,y,z forces =   -1.1250E+03   -2.2474E+04   -5.1664E+05  setid=       0
 node=    41 local x,y,z forces =   -3.6859E+03   -1.3299E+04   -5.1575E+05  setid=       0
 node=    50 local x,y,z forces =   -5.1522E+03   -6.2494E+03   -5.1547E+05  setid=       0
 node=    59 local x,y,z forces =   -5.7199E+03   -3.7107E-10   -5.1522E+05  setid=       0
 node=    68 local x,y,z forces =   -5.1522E+03    6.2494E+03   -5.1547E+05  setid=       0
 node=    77 local x,y,z forces =   -3.6859E+03    1.3299E+04   -5.1575E+05  setid=       0
 node=    86 local x,y,z forces =   -1.1250E+03    2.2474E+04   -5.1664E+05  setid=       0
 node=    95 local x,y,z forces =    1.7113E+03    3.4153E+04   -5.1653E+05  setid=       0
 node=   104 local x,y,z forces =    4.6840E+03    6.0113E+04   -5.2052E+05  setid=       0
 node=   113 local x,y,z forces =    6.4345E+03    9.6544E+04   -2.6747E+05  setid=       0
 node=  5855 local x,y,z forces =    6.4401E+03   -9.6544E+04    0.0000E+00  setid=       0
 node=  5864 local x,y,z forces =    4.6955E+03   -6.0113E+04    0.0000E+00  setid=       0
 node=  5873 local x,y,z forces =    1.7228E+03   -3.4153E+04    0.0000E+00  setid=       0
 node=  5882 local x,y,z forces =   -1.1135E+03   -2.2475E+04    0.0000E+00  setid=       0
 node=  5891 local x,y,z forces =   -3.6744E+03   -1.3299E+04    0.0000E+00  setid=       0
 node=  5900 local x,y,z forces =   -5.1406E+03   -6.2494E+03    0.0000E+00  setid=       0
 node=  5909 local x,y,z forces =   -5.7083E+03   -3.2815E-09    0.0000E+00  setid=       0
 node=  5918 local x,y,z forces =   -5.1406E+03    6.2494E+03    0.0000E+00  setid=       0
 node=  5927 local x,y,z forces =   -3.6744E+03    1.3299E+04    0.0000E+00  setid=       0
 node=  5936 local x,y,z forces =   -1.1135E+03    2.2475E+04    0.0000E+00  setid=       0
 node=  5945 local x,y,z forces =    1.7228E+03    3.4153E+04    0.0000E+00  setid=       0
 node=  5954 local x,y,z forces =    4.6955E+03    6.0113E+04    0.0000E+00  setid=       0
 node=  5963 local x,y,z forces =    6.4401E+03    9.6544E+04    0.0000E+00  setid=       0
             force resultants   =    1.6506E+02   -8.0036E-09   -6.2200E+06
 output at time =   8.50000E-03
 node=     5 local x,y,z forces =    6.6606E+03   -9.6507E+04   -2.6756E+05  setid=       0
 node=    14 local x,y,z forces =    4.8485E+03   -6.0090E+04   -5.2062E+05  setid=       0
 node=    23 local x,y,z forces =    1.7712E+03   -3.4140E+04   -5.1661E+05  setid=       0
 node=    32 local x,y,z forces =   -1.1650E+03   -2.2466E+04   -5.1669E+05  setid=       0
 node=    41 local x,y,z forces =   -3.8159E+03   -1.3294E+04   -5.1579E+05  setid=       0
 node=    50 local x,y,z forces =   -5.3338E+03   -6.2470E+03   -5.1549E+05  setid=       0
 node=    59 local x,y,z forces =   -5.9214E+03    4.0745E-10   -5.1524E+05  setid=       0
 node=    68 local x,y,z forces =   -5.3338E+03    6.2470E+03   -5.1549E+05  setid=       0
 node=    77 local x,y,z forces =   -3.8159E+03    1.3294E+04   -5.1579E+05  setid=       0
 node=    86 local x,y,z forces =   -1.1650E+03    2.2466E+04   -5.1669E+05  setid=       0
 node=    95 local x,y,z forces =    1.7712E+03    3.4140E+04   -5.1661E+05  setid=       0
 node=   104 local x,y,z forces =    4.8485E+03    6.0090E+04   -5.2062E+05  setid=       0
 node=   113 local x,y,z forces =    6.6606E+03    9.6507E+04   -2.6756E+05  setid=       0
 node=  5855 local x,y,z forces =    6.6653E+03   -9.6506E+04    0.0000E+00  setid=       0
 node=  5864 local x,y,z forces =    4.8582E+03   -6.0091E+04    0.0000E+00  setid=       0
 node=  5873 local x,y,z forces =    1.7809E+03   -3.4140E+04    0.0000E+00  setid=       0
 node=  5882 local x,y,z forces =   -1.1552E+03   -2.2466E+04    0.0000E+00  setid=       0
 node=  5891 local x,y,z forces =   -3.8062E+03   -1.3294E+04    0.0000E+00  setid=       0
 node=  5900 local x,y,z forces =   -5.3240E+03   -6.2470E+03    0.0000E+00  setid=       0
 node=  5909 local x,y,z forces =   -5.9116E+03   -1.1423E-09    0.0000E+00  setid=       0
 node=  5918 local x,y,z forces =   -5.3240E+03    6.2470E+03    0.0000E+00  setid=       0
 node=  5927 local x,y,z forces =   -3.8062E+03    1.3294E+04    0.0000E+00  setid=       0
 node=  5936 local x,y,z forces =   -1.1552E+03    2.2466E+04    0.0000E+00  setid=       0
 node=  5945 local x,y,z forces =    1.7809E+03    3.4140E+04    0.0000E+00  setid=       0
 node=  5954 local x,y,z forces =    4.8582E+03    6.0091E+04    0.0000E+00  setid=       0
 node=  5963 local x,y,z forces =    6.6653E+03    9.6506E+04    0.0000E+00  setid=       0
             force resultants   =    1.3595E+02    2.0227E-09   -6.2208E+06
 output at time =   9.00000E-03
 node=     5 local x,y,z forces =    6.8788E+03   -9.6469E+04   -2.6765E+05  setid=       0
 node=    14 local x,y,z forces =    5.0073E+03   -6.0068E+04   -5.2073E+05  setid=       0
 node=    23 local x,y,z forces =    1.8290E+03   -3.4127E+04   -5.1669E+05  setid=       0
 node=    32 local x,y,z forces =   -1.2034E+03   -2.2457E+04   -5.1675E+05  setid=       0
 node=    41 local x,y,z forces =   -3.9413E+03   -1.3289E+04   -5.1583E+05  setid=       0
 node=    50 local x,y,z forces =   -5.5089E+03   -6.2446E+03   -5.1552E+05  setid=       0
 node=    59 local x,y,z forces =   -6.1158E+03    2.7721E-09   -5.1526E+05  setid=       0
 node=    68 local x,y,z forces =   -5.5089E+03    6.2446E+03   -5.1552E+05  setid=       0
 node=    77 local x,y,z forces =   -3.9413E+03    1.3289E+04   -5.1583E+05  setid=       0
 node=    86 local x,y,z forces =   -1.2034E+03    2.2457E+04   -5.1675E+05  setid=       0
 node=    95 local x,y,z forces =    1.8290E+03    3.4127E+04   -5.1669E+05  setid=       0
 node=   104 local x,y,z forces =    5.0073E+03    6.0068E+04   -5.2073E+05  setid=       0
 node=   113 local x,y,z forces =    6.8788E+03    9.6469E+04   -2.6765E+05  setid=       0
 node=  5855 local x,y,z forces =    6.8828E+03   -9.6469E+04    0.0000E+00  setid=       0
 node=  5864 local x,y,z forces =    5.0155E+03   -6.0068E+04    0.0000E+00  setid=       0
 node=  5873 local x,y,z forces =    1.8373E+03   -3.4127E+04    0.0000E+00  setid=       0
 node=  5882 local x,y,z forces =   -1.1951E+03   -2.2457E+04    0.0000E+00  setid=       0
 node=  5891 local x,y,z forces =   -3.9330E+03   -1.3289E+04    0.0000E+00  setid=       0
 node=  5900 local x,y,z forces =   -5.5006E+03   -6.2446E+03    0.0000E+00  setid=       0
 node=  5909 local x,y,z forces =   -6.1075E+03    5.6752E-10    0.0000E+00  setid=       0
 node=  5918 local x,y,z forces =   -5.5006E+03    6.2446E+03    0.0000E+00  setid=       0
 node=  5927 local x,y,z forces =   -3.9330E+03    1.3289E+04    0.0000E+00  setid=       0
 node=  5936 local x,y,z forces =   -1.1951E+03    2.2457E+04    0.0000E+00  setid=       0
 node=  5945 local x,y,z forces =    1.8373E+03    3.4127E+04    0.0000E+00  setid=       0
 node=  5954 local x,y,z forces =    5.0155E+03    6.0068E+04    0.0000E+00  setid=       0
 node=  5963 local x,y,z forces =    6.8828E+03    9.6469E+04    0.0000E+00  setid=       0
             force resultants   =    1.1308E+02    1.4552E-10   -6.2216E+06
 output at time =   9.50000E-03
 node=     5 local x,y,z forces =    7.0899E+03   -9.6433E+04   -2.6773E+05  setid=       0
 node=    14 local x,y,z forces =    5.1609E+03   -6.0045E+04   -5.2084E+05  setid=       0
 node=    23 local x,y,z forces =    1.8850E+03   -3.4114E+04   -5.1677E+05  setid=       0
 node=    32 local x,y,z forces =   -1.2405E+03   -2.2449E+04   -5.1681E+05  setid=       0
 node=    41 local x,y,z forces =   -4.0625E+03   -1.3284E+04   -5.1586E+05  setid=       0
 node=    50 local x,y,z forces =   -5.6783E+03   -6.2422E+03   -5.1554E+05  setid=       0
 node=    59 local x,y,z forces =   -6.3038E+03    1.3897E-09   -5.1528E+05  setid=       0
 node=    68 local x,y,z forces =   -5.6783E+03    6.2422E+03   -5.1554E+05  setid=       0
 node=    77 local x,y,z forces =   -4.0625E+03    1.3284E+04   -5.1586E+05  setid=       0
 node=    86 local x,y,z forces =   -1.2405E+03    2.2449E+04   -5.1681E+05  setid=       0
 node=    95 local x,y,z forces =    1.8850E+03    3.4114E+04   -5.1677E+05  setid=       0
 node=   104 local x,y,z forces =    5.1609E+03    6.0045E+04   -5.2084E+05  setid=       0
 node=   113 local x,y,z forces =    7.0899E+03    9.6433E+04   -2.6773E+05  setid=       0
 node=  5855 local x,y,z forces =    7.0933E+03   -9.6432E+04    0.0000E+00  setid=       0
 node=  5864 local x,y,z forces =    5.1679E+03   -6.0045E+04    0.0000E+00  setid=       0
 node=  5873 local x,y,z forces =    1.8921E+03   -3.4114E+04    0.0000E+00  setid=       0
 node=  5882 local x,y,z forces =   -1.2335E+03   -2.2449E+04    0.0000E+00  setid=       0
 node=  5891 local x,y,z forces =   -4.0554E+03   -1.3284E+04    0.0000E+00  setid=       0
 node=  5900 local x,y,z forces =   -5.6712E+03   -6.2422E+03    0.0000E+00  setid=       0
 node=  5909 local x,y,z forces =   -6.2967E+03   -2.8667E-09    0.0000E+00  setid=       0
 node=  5918 local x,y,z forces =   -5.6712E+03    6.2422E+03    0.0000E+00  setid=       0
 node=  5927 local x,y,z forces =   -4.0554E+03    1.3284E+04    0.0000E+00  setid=       0
 node=  5936 local x,y,z forces =   -1.2335E+03    2.2449E+04    0.0000E+00  setid=       0
 node=  5945 local x,y,z forces =    1.8921E+03    3.4114E+04    0.0000E+00  setid=       0
 node=  5954 local x,y,z forces =    5.1679E+03    6.0045E+04    0.0000E+00  setid=       0
 node=  5963 local x,y,z forces =    7.0933E+03    9.6432E+04    0.0000E+00  setid=       0
             force resultants   =    9.4865E+01   -8.2509E-09   -6.2224E+06
 output at time =   1.00000E-02
 node=     5 local x,y,z forces =    7.2945E+03   -9.6396E+04   -2.6782E+05  setid=       0
 node=    14 local x,y,z forces =    5.3097E+03   -6.0022E+04   -5.2095E+05  setid=       0
 node=    23 local x,y,z forces =    1.9393E+03   -3.4101E+04   -5.1685E+05  setid=       0
 node=    32 local x,y,z forces =   -1.2765E+03   -2.2440E+04   -5.1687E+05  setid=       0
 node=    41 local x,y,z forces =   -4.1799E+03   -1.3279E+04   -5.1590E+05  setid=       0
 node=    50 local x,y,z forces =   -5.8424E+03   -6.2398E+03   -5.1557E+05  setid=       0
 node=    59 local x,y,z forces =   -6.4860E+03    1.8190E-10   -5.1529E+05  setid=       0
 node=    68 local x,y,z forces =   -5.8424E+03    6.2398E+03   -5.1557E+05  setid=       0
 node=    77 local x,y,z forces =   -4.1799E+03    1.3279E+04   -5.1590E+05  setid=       0
 node=    86 local x,y,z forces =   -1.2765E+03    2.2440E+04   -5.1687E+05  setid=       0
 node=    95 local x,y,z forces =    1.9393E+03    3.4101E+04   -5.1685E+05  setid=       0
 node=   104 local x,y,z forces =    5.3097E+03    6.0022E+04   -5.2095E+05  setid=       0
 node=   113 local x,y,z forces =    7.2945E+03    9.6396E+04   -2.6782E+05  setid=       0
 node=  5855 local x,y,z forces =    7.2975E+03   -9.6396E+04    0.0000E+00  setid=       0
 node=  5864 local x,y,z forces =    5.3158E+03   -6.0022E+04    0.0000E+00  setid=       0
 node=  5873 local x,y,z forces =    1.9454E+03   -3.4101E+04    0.0000E+00  setid=       0
 node=  5882 local x,y,z forces =   -1.2704E+03   -2.2440E+04    0.0000E+00  setid=       0
 node=  5891 local x,y,z forces =   -4.1738E+03   -1.3279E+04    0.0000E+00  setid=       0
 node=  5900 local x,y,z forces =   -5.8362E+03   -6.2398E+03    0.0000E+00  setid=       0
 node=  5909 local x,y,z forces =   -6.4798E+03   -4.2564E-09    0.0000E+00  setid=       0
 node=  5918 local x,y,z forces =   -5.8362E+03    6.2398E+03    0.0000E+00  setid=       0
 node=  5927 local x,y,z forces =   -4.1738E+03    1.3279E+04    0.0000E+00  setid=       0
 node=  5936 local x,y,z forces =   -1.2704E+03    2.2440E+04    0.0000E+00  setid=       0
 node=  5945 local x,y,z forces =    1.9454E+03    3.4101E+04    0.0000E+00  setid=       0
 node=  5954 local x,y,z forces =    5.3158E+03    6.0022E+04    0.0000E+00  setid=       0
 node=  5963 local x,y,z forces =    7.2975E+03    9.6396E+04    0.0000E+00  setid=       0
             force resultants   =    8.0186E+01    6.7666E-09   -6.2232E+06
 output at time =   1.05000E-02
 node=     5 local x,y,z forces =    7.4931E+03   -9.6359E+04   -2.6791E+05  setid=       0
 node=    14 local x,y,z forces =    5.4542E+03   -6.0000E+04   -5.2105E+05  setid=       0
 node=    23 local x,y,z forces =    1.9920E+03   -3.4088E+04   -5.1694E+05  setid=       0
 node=    32 local x,y,z forces =   -1.3114E+03   -2.2432E+04   -5.1692E+05  setid=       0
 node=    41 local x,y,z forces =   -4.2939E+03   -1.3274E+04   -5.1593E+05  setid=       0
 node=    50 local x,y,z forces =   -6.0016E+03   -6.2373E+03   -5.1559E+05  setid=       0
 node=    59 local x,y,z forces =   -6.6627E+03   -1.8481E-09   -5.1531E+05  setid=       0
 node=    68 local x,y,z forces =   -6.0016E+03    6.2373E+03   -5.1559E+05  setid=       0
 node=    77 local x,y,z forces =   -4.2939E+03    1.3274E+04   -5.1593E+05  setid=       0
 node=    86 local x,y,z forces =   -1.3114E+03    2.2432E+04   -5.1692E+05  setid=       0
 node=    95 local x,y,z forces =    1.9920E+03    3.4088E+04   -5.1694E+05  setid=       0
 node=   104 local x,y,z forces =    5.4542E+03    6.0000E+04   -5.2105E+05  setid=       0
 node=   113 local x,y,z forces =    7.4931E+03    9.6359E+04   -2.6791E+05  setid=       0
 node=  5855 local x,y,z forces =    7.4957E+03   -9.6359E+04    0.0000E+00  setid=       0
 node=  5864 local x,y,z forces =    5.4596E+03   -6.0000E+04    0.0000E+00  setid=       0
 node=  5873 local x,y,z forces =    1.9973E+03   -3.4088E+04    0.0000E+00  setid=       0
 node=  5882 local x,y,z forces =   -1.3060E+03   -2.2432E+04    0.0000E+00  setid=       0
 node=  5891 local x,y,z forces =   -4.2886E+03   -1.3274E+04    0.0000E+00  setid=       0
 node=  5900 local x,y,z forces =   -5.9962E+03   -6.2374E+03    0.0000E+00  setid=       0
 node=  5909 local x,y,z forces =   -6.6574E+03   -5.6971E-09    0.0000E+00  setid=       0
 node=  5918 local x,y,z forces =   -5.9962E+03    6.2374E+03    0.0000E+00  setid=       0
 node=  5927 local x,y,z forces =   -4.2886E+03    1.3274E+04    0.0000E+00  setid=       0
 node=  5936 local x,y,z forces =   -1.3060E+03    2.2432E+04    0.0000E+00  setid=       0
 node=  5945 local x,y,z forces =    1.9973E+03    3.4088E+04    0.0000E+00  setid=       0
 node=  5954 local x,y,z forces =    5.4596E+03    6.0000E+04    0.0000E+00  setid=       0
 node=  5963 local x,y,z forces =    7.4957E+03    9.6359E+04    0.0000E+00  setid=       0
             force resultants   =    6.8230E+01    6.8831E-09   -6.2240E+06
 output at time =   1.10000E-02
 node=     5 local x,y,z forces =    7.6862E+03   -9.6322E+04   -2.6800E+05  setid=       0
 node=    14 local x,y,z forces =    5.5947E+03   -5.9977E+04   -5.2116E+05  setid=       0
 node=    23 local x,y,z forces =    2.0433E+03   -3.4075E+04   -5.1702E+05  setid=       0
 node=    32 local x,y,z forces =   -1.3453E+03   -2.2423E+04   -5.1698E+05  setid=       0
 node=    41 local x,y,z forces =   -4.4047E+03   -1.3268E+04   -5.1597E+05  setid=       0
 node=    50 local x,y,z forces =   -6.1564E+03   -6.2349E+03   -5.1561E+05  setid=       0
 node=    59 local x,y,z forces =   -6.8346E+03    1.5571E-09   -5.1533E+05  setid=       0
 node=    68 local x,y,z forces =   -6.1564E+03    6.2349E+03   -5.1561E+05  setid=       0
 node=    77 local x,y,z forces =   -4.4047E+03    1.3268E+04   -5.1597E+05  setid=       0
 node=    86 local x,y,z forces =   -1.3453E+03    2.2423E+04   -5.1698E+05  setid=       0
 node=    95 local x,y,z forces =    2.0433E+03    3.4075E+04   -5.1702E+05  setid=       0
 node=   104 local x,y,z forces =    5.5947E+03    5.9977E+04   -5.2116E+05  setid=       0
 node=   113 local x,y,z forces =    7.6862E+03    9.6322E+04   -2.6800E+05  setid=       0
 node=  5855 local x,y,z forces =    7.6885E+03   -9.6322E+04    0.0000E+00  setid=       0
 node=  5864 local x,y,z forces =    5.5994E+03   -5.9977E+04    0.0000E+00  setid=       0
 node=  5873 local x,y,z forces =    2.0479E+03   -3.4075E+04    0.0000E+00  setid=       0
 node=  5882 local x,y,z forces =   -1.3406E+03   -2.2423E+04    0.0000E+00  setid=       0
 node=  5891 local x,y,z forces =   -4.4000E+03   -1.3268E+04    0.0000E+00  setid=       0
 node=  5900 local x,y,z forces =   -6.1517E+03   -6.2349E+03    0.0000E+00  setid=       0
 node=  5909 local x,y,z forces =   -6.8299E+03   -3.4051E-09    0.0000E+00  setid=       0
 node=  5918 local x,y,z forces =   -6.1517E+03    6.2349E+03    0.0000E+00  setid=       0
 node=  5927 local x,y,z forces =   -4.4000E+03    1.3268E+04    0.0000E+00  setid=       0
 node=  5936 local x,y,z forces =   -1.3406E+03    2.2423E+04    0.0000E+00  setid=       0
 node=  5945 local x,y,z forces =    2.0479E+03    3.4075E+04    0.0000E+00  setid=       0
 node=  5954 local x,y,z forces =    5.5994E+03    5.9977E+04    0.0000E+00  setid=       0
 node=  5963 local x,y,z forces =    7.6885E+03    9.6322E+04    0.0000E+00  setid=       0
             force resultants   =    5.8398E+01    3.0559E-10   -6.2248E+06
 output at time =   1.15000E-02
 node=     5 local x,y,z forces =    7.7987E+03   -9.6186E+04   -2.6835E+05  setid=       0
 node=    14 local x,y,z forces =    5.5762E+03   -6.0028E+04   -5.2176E+05  setid=       0
 node=    23 local x,y,z forces =    1.9416E+03   -3.4103E+04   -5.1759E+05  setid=       0
 node=    32 local x,y,z forces =   -1.5275E+03   -2.2442E+04   -5.1753E+05  setid=       0
 node=    41 local x,y,z forces =   -4.6605E+03   -1.3279E+04   -5.1650E+05  setid=       0
 node=    50 local x,y,z forces =   -6.4544E+03   -6.2401E+03   -5.1613E+05  setid=       0
 node=    59 local x,y,z forces =   -7.1489E+03    2.7503E-09   -5.1584E+05  setid=       0
 node=    68 local x,y,z forces =   -6.4544E+03    6.2401E+03   -5.1613E+05  setid=       0
 node=    77 local x,y,z forces =   -4.6605E+03    1.3279E+04   -5.1650E+05  setid=       0
 node=    86 local x,y,z forces =   -1.5275E+03    2.2442E+04   -5.1753E+05  setid=       0
 node=    95 local x,y,z forces =    1.9416E+03    3.4103E+04   -5.1759E+05  setid=       0
 node=   104 local x,y,z forces =    5.5762E+03    6.0028E+04   -5.2176E+05  setid=       0
 node=   113 local x,y,z forces =    7.7987E+03    9.6186E+04   -2.6835E+05  setid=       0
 node=  5855 local x,y,z forces =    7.7117E+03   -9.6129E+04    0.0000E+00  setid=       0
 node=  5864 local x,y,z forces =    5.4022E+03   -6.0028E+04    0.0000E+00  setid=       0
 node=  5873 local x,y,z forces =    1.7677E+03   -3.4103E+04    0.0000E+00  setid=       0
 node=  5882 local x,y,z forces =   -1.7014E+03   -2.2442E+04    0.0000E+00  setid=       0
 node=  5891 local x,y,z forces =   -4.8344E+03   -1.3279E+04    0.0000E+00  setid=       0
 node=  5900 local x,y,z forces =   -6.6283E+03   -6.2401E+03    0.0000E+00  setid=       0
 node=  5909 local x,y,z forces =   -7.3228E+03    4.6566E-10    0.0000E+00  setid=       0
 node=  5918 local x,y,z forces =   -6.6283E+03    6.2401E+03    0.0000E+00  setid=       0
 node=  5927 local x,y,z forces =   -4.8344E+03    1.3279E+04    0.0000E+00  setid=       0
 node=  5936 local x,y,z forces =   -1.7014E+03    2.2442E+04    0.0000E+00  setid=       0
 node=  5945 local x,y,z forces =    1.7677E+03    3.4103E+04    0.0000E+00  setid=       0
 node=  5954 local x,y,z forces =    5.4022E+03    6.0028E+04    0.0000E+00  setid=       0
 node=  5963 local x,y,z forces =    7.7117E+03    9.6129E+04    0.0000E+00  setid=       0
             force resultants   =   -5.6884E+03   -2.5451E-08   -6.2316E+06
 output at time =   1.20000E-02
 node=     5 local x,y,z forces =    7.9864E+03   -9.6158E+04   -2.6842E+05  setid=       0
 node=    14 local x,y,z forces =    5.7188E+03   -5.9999E+04   -5.2183E+05  setid=       0
 node=    23 local x,y,z forces =    1.9994E+03   -3.4086E+04   -5.1763E+05  setid=       0
 node=    32 local x,y,z forces =   -1.5507E+03   -2.2431E+04   -5.1755E+05  setid=       0
 node=    41 local x,y,z forces =   -4.7567E+03   -1.3273E+04   -5.1649E+05  setid=       0
 node=    50 local x,y,z forces =   -6.5923E+03   -6.2370E+03   -5.1611E+05  setid=       0
 node=    59 local x,y,z forces =   -7.3031E+03    2.9977E-09   -5.1582E+05  setid=       0
 node=    68 local x,y,z forces =   -6.5923E+03    6.2370E+03   -5.1611E+05  setid=       0
 node=    77 local x,y,z forces =   -4.7567E+03    1.3273E+04   -5.1649E+05  setid=       0
 node=    86 local x,y,z forces =   -1.5507E+03    2.2431E+04   -5.1755E+05  setid=       0
 node=    95 local x,y,z forces =    1.9994E+03    3.4086E+04   -5.1763E+05  setid=       0
 node=   104 local x,y,z forces =    5.7188E+03    5.9999E+04   -5.2183E+05  setid=       0
 node=   113 local x,y,z forces =    7.9864E+03    9.6158E+04   -2.6842E+05  setid=       0
 node=  5855 local x,y,z forces =    7.9049E+03   -9.6105E+04    0.0000E+00  setid=       0
 node=  5864 local x,y,z forces =    5.5559E+03   -5.9999E+04    0.0000E+00  setid=       0
 node=  5873 local x,y,z forces =    1.8365E+03   -3.4086E+04    0.0000E+00  setid=       0
 node=  5882 local x,y,z forces =   -1.7135E+03   -2.2431E+04    0.0000E+00  setid=       0
 node=  5891 local x,y,z forces =   -4.9195E+03   -1.3273E+04    0.0000E+00  setid=       0
 node=  5900 local x,y,z forces =   -6.7551E+03   -6.2370E+03    0.0000E+00  setid=       0
 node=  5909 local x,y,z forces =   -7.4659E+03   -6.7812E-09    0.0000E+00  setid=       0
 node=  5918 local x,y,z forces =   -6.7551E+03    6.2370E+03    0.0000E+00  setid=       0
 node=  5927 local x,y,z forces =   -4.9195E+03    1.3273E+04    0.0000E+00  setid=       0
 node=  5936 local x,y,z forces =   -1.7135E+03    2.2431E+04    0.0000E+00  setid=       0
 node=  5945 local x,y,z forces =    1.8365E+03    3.4086E+04    0.0000E+00  setid=       0
 node=  5954 local x,y,z forces =    5.5559E+03    5.9999E+04    0.0000E+00  setid=       0
 node=  5963 local x,y,z forces =    7.9049E+03    9.6105E+04    0.0000E+00  setid=       0
             force resultants   =   -5.3409E+03   -5.2387E-09   -6.2319E+06
 output at time =   1.25000E-02
 node=     5 local x,y,z forces =    8.1696E+03   -9.6129E+04   -2.6848E+05  setid=       0
 node=    14 local x,y,z forces =    5.8581E+03   -5.9970E+04   -5.2190E+05  setid=       0
 node=    23 local x,y,z forces =    2.0558E+03   -3.4070E+04   -5.1767E+05  setid=       0
 node=    32 local x,y,z forces =   -1.5732E+03   -2.2420E+04   -5.1757E+05  setid=       0
 node=    41 local x,y,z forces =   -4.8505E+03   -1.3267E+04   -5.1649E+05  setid=       0
 node=    50 local x,y,z forces =   -6.7269E+03   -6.2340E+03   -5.1609E+05  setid=       0
 node=    59 local x,y,z forces =   -7.4535E+03    3.9799E-09   -5.1580E+05  setid=       0
 node=    68 local x,y,z forces =   -6.7269E+03    6.2340E+03   -5.1609E+05  setid=       0
 node=    77 local x,y,z forces =   -4.8505E+03    1.3267E+04   -5.1649E+05  setid=       0
 node=    86 local x,y,z forces =   -1.5732E+03    2.2420E+04   -5.1757E+05  setid=       0
 node=    95 local x,y,z forces =    2.0558E+03    3.4070E+04   -5.1767E+05  setid=       0
 node=   104 local x,y,z forces =    5.8581E+03    5.9970E+04   -5.2190E+05  setid=       0
 node=   113 local x,y,z forces =    8.1696E+03    9.6129E+04   -2.6848E+05  setid=       0
 node=  5855 local x,y,z forces =    8.0934E+03   -9.6081E+04    0.0000E+00  setid=       0
 node=  5864 local x,y,z forces =    5.7056E+03   -5.9970E+04    0.0000E+00  setid=       0
 node=  5873 local x,y,z forces =    1.9033E+03   -3.4070E+04    0.0000E+00  setid=       0
 node=  5882 local x,y,z forces =   -1.7256E+03   -2.2420E+04    0.0000E+00  setid=       0
 node=  5891 local x,y,z forces =   -5.0029E+03   -1.3266E+04    0.0000E+00  setid=       0
 node=  5900 local x,y,z forces =   -6.8793E+03   -6.2340E+03    0.0000E+00  setid=       0
 node=  5909 local x,y,z forces =   -7.6059E+03    3.4925E-09    0.0000E+00  setid=       0
 node=  5918 local x,y,z forces =   -6.8793E+03    6.2340E+03    0.0000E+00  setid=       0
 node=  5927 local x,y,z forces =   -5.0029E+03    1.3266E+04    0.0000E+00  setid=       0
 node=  5936 local x,y,z forces =   -1.7256E+03    2.2420E+04    0.0000E+00  setid=       0
 node=  5945 local x,y,z forces =    1.9033E+03    3.4070E+04    0.0000E+00  setid=       0
 node=  5954 local x,y,z forces =    5.7056E+03    5.9970E+04    0.0000E+00  setid=       0
 node=  5963 local x,y,z forces =    8.0934E+03    9.6081E+04    0.0000E+00  setid=       0
             force resultants   =   -5.0047E+03   -5.3347E-08   -6.2322E+06
 output at time =   1.30000E-02
 node=     5 local x,y,z forces =    8.3483E+03   -9.6100E+04   -2.6856E+05  setid=       0
 node=    14 local x,y,z forces =    5.9934E+03   -5.9943E+04   -5.2197E+05  setid=       0
 node=    23 local x,y,z forces =    2.1102E+03   -3.4054E+04   -5.1772E+05  setid=       0
 node=    32 local x,y,z forces =   -1.5959E+03   -2.2409E+04   -5.1759E+05  setid=       0
 node=    41 local x,y,z forces =   -4.9427E+03   -1.3260E+04   -5.1649E+05  setid=       0
 node=    50 local x,y,z forces =   -6.8590E+03   -6.2311E+03   -5.1608E+05  setid=       0
 node=    59 local x,y,z forces =   -7.6010E+03    9.2623E-09   -5.1578E+05  setid=       0
 node=    68 local x,y,z forces =   -6.8590E+03    6.2311E+03   -5.1608E+05  setid=       0
 node=    77 local x,y,z forces =   -4.9427E+03    1.3260E+04   -5.1649E+05  setid=       0
 node=    86 local x,y,z forces =   -1.5959E+03    2.2409E+04   -5.1759E+05  setid=       0
 node=    95 local x,y,z forces =    2.1102E+03    3.4054E+04   -5.1772E+05  setid=       0
 node=   104 local x,y,z forces =    5.9934E+03    5.9943E+04   -5.2197E+05  setid=       0
 node=   113 local x,y,z forces =    8.3483E+03    9.6100E+04   -2.6856E+05  setid=       0
 node=  5855 local x,y,z forces =    8.2767E+03   -9.6056E+04    0.0000E+00  setid=       0
 node=  5864 local x,y,z forces =    5.8502E+03   -5.9943E+04    0.0000E+00  setid=       0
 node=  5873 local x,y,z forces =    1.9671E+03   -3.4054E+04    0.0000E+00  setid=       0
 node=  5882 local x,y,z forces =   -1.7389E+03   -2.2409E+04    0.0000E+00  setid=       0
 node=  5891 local x,y,z forces =   -5.0858E+03   -1.3260E+04    0.0000E+00  setid=       0
 node=  5900 local x,y,z forces =   -7.0020E+03   -6.2311E+03    0.0000E+00  setid=       0
 node=  5909 local x,y,z forces =   -7.7440E+03    1.6196E-08    0.0000E+00  setid=       0
 node=  5918 local x,y,z forces =   -7.0020E+03    6.2311E+03    0.0000E+00  setid=       0
 node=  5927 local x,y,z forces =   -5.0858E+03    1.3260E+04    0.0000E+00  setid=       0
 node=  5936 local x,y,z forces =   -1.7389E+03    2.2409E+04    0.0000E+00  setid=       0
 node=  5945 local x,y,z forces =    1.9671E+03    3.4054E+04    0.0000E+00  setid=       0
 node=  5954 local x,y,z forces =    5.8502E+03    5.9943E+04    0.0000E+00  setid=       0
 node=  5963 local x,y,z forces =    8.2767E+03    9.6056E+04    0.0000E+00  setid=       0
             force resultants   =   -4.7021E+03   -7.7620E-08   -6.2326E+06
 output at time =   1.35000E-02
 node=     5 local x,y,z forces =    8.5226E+03   -9.6069E+04   -2.6863E+05  setid=       0
 node=    14 local x,y,z forces =    6.1250E+03   -5.9915E+04   -5.2205E+05  setid=       0
 node=    23 local x,y,z forces =    2.1628E+03   -3.4038E+04   -5.1777E+05  setid=       0
 node=    32 local x,y,z forces =   -1.6186E+03   -2.2399E+04   -5.1762E+05  setid=       0
 node=    41 local x,y,z forces =   -5.0335E+03   -1.3254E+04   -5.1650E+05  setid=       0
 node=    50 local x,y,z forces =   -6.9887E+03   -6.2282E+03   -5.1608E+05  setid=       0
 node=    59 local x,y,z forces =   -7.7458E+03   -2.9977E-09   -5.1577E+05  setid=       0
 node=    68 local x,y,z forces =   -6.9887E+03    6.2282E+03   -5.1608E+05  setid=       0
 node=    77 local x,y,z forces =   -5.0335E+03    1.3254E+04   -5.1650E+05  setid=       0
 node=    86 local x,y,z forces =   -1.6186E+03    2.2399E+04   -5.1762E+05  setid=       0
 node=    95 local x,y,z forces =    2.1628E+03    3.4038E+04   -5.1777E+05  setid=       0
 node=   104 local x,y,z forces =    6.1250E+03    5.9915E+04   -5.2205E+05  setid=       0
 node=   113 local x,y,z forces =    8.5226E+03    9.6069E+04   -2.6863E+05  setid=       0
 node=  5855 local x,y,z forces =    8.4552E+03   -9.6029E+04    0.0000E+00  setid=       0
 node=  5864 local x,y,z forces =    5.9904E+03   -5.9915E+04    0.0000E+00  setid=       0
 node=  5873 local x,y,z forces =    2.0282E+03   -3.4038E+04    0.0000E+00  setid=       0
 node=  5882 local x,y,z forces =   -1.7532E+03   -2.2399E+04    0.0000E+00  setid=       0
 node=  5891 local x,y,z forces =   -5.1681E+03   -1.3254E+04    0.0000E+00  setid=       0
 node=  5900 local x,y,z forces =   -7.1233E+03   -6.2282E+03    0.0000E+00  setid=       0
 node=  5909 local x,y,z forces =   -7.8804E+03   -8.9058E-09    0.0000E+00  setid=       0
 node=  5918 local x,y,z forces =   -7.1233E+03    6.2282E+03    0.0000E+00  setid=       0
 node=  5927 local x,y,z forces =   -5.1681E+03    1.3254E+04    0.0000E+00  setid=       0
 node=  5936 local x,y,z forces =   -1.7532E+03    2.2399E+04    0.0000E+00  setid=       0
 node=  5945 local x,y,z forces =    2.0282E+03    3.4038E+04    0.0000E+00  setid=       0
 node=  5954 local x,y,z forces =    5.9904E+03    5.9915E+04    0.0000E+00  setid=       0
 node=  5963 local x,y,z forces =    8.4552E+03    9.6029E+04    0.0000E+00  setid=       0
             force resultants   =   -4.4288E+03    4.5722E-08   -6.2331E+06
 output at time =   1.40000E-02
 node=     5 local x,y,z forces =    8.6929E+03   -9.6038E+04   -2.6871E+05  setid=       0
 node=    14 local x,y,z forces =    6.2534E+03   -5.9889E+04   -5.2213E+05  setid=       0
 node=    23 local x,y,z forces =    2.2138E+03   -3.4023E+04   -5.1783E+05  setid=       0
 node=    32 local x,y,z forces =   -1.6414E+03   -2.2389E+04   -5.1765E+05  setid=       0
 node=    41 local x,y,z forces =   -5.1228E+03   -1.3248E+04   -5.1651E+05  setid=       0
 node=    50 local x,y,z forces =   -7.1161E+03   -6.2254E+03   -5.1607E+05  setid=       0
 node=    59 local x,y,z forces =   -7.8879E+03    8.5129E-10   -5.1576E+05  setid=       0
 node=    68 local x,y,z forces =   -7.1161E+03    6.2254E+03   -5.1607E+05  setid=       0
 node=    77 local x,y,z forces =   -5.1228E+03    1.3248E+04   -5.1651E+05  setid=       0
 node=    86 local x,y,z forces =   -1.6414E+03    2.2389E+04   -5.1765E+05  setid=       0
 node=    95 local x,y,z forces =    2.2138E+03    3.4023E+04   -5.1783E+05  setid=       0
 node=   104 local x,y,z forces =    6.2534E+03    5.9889E+04   -5.2213E+05  setid=       0
 node=   113 local x,y,z forces =    8.6929E+03    9.6038E+04   -2.6871E+05  setid=       0
 node=  5855 local x,y,z forces =    8.6293E+03   -9.6001E+04    0.0000E+00  setid=       0
 node=  5864 local x,y,z forces =    6.1263E+03   -5.9889E+04    0.0000E+00  setid=       0
 node=  5873 local x,y,z forces =    2.0868E+03   -3.4023E+04    0.0000E+00  setid=       0
 node=  5882 local x,y,z forces =   -1.7684E+03   -2.2389E+04    0.0000E+00  setid=       0
 node=  5891 local x,y,z forces =   -5.2498E+03   -1.3248E+04    0.0000E+00  setid=       0
 node=  5900 local x,y,z forces =   -7.2431E+03   -6.2254E+03    0.0000E+00  setid=       0
 node=  5909 local x,y,z forces =   -8.0149E+03   -4.8240E-09    0.0000E+00  setid=       0
 node=  5918 local x,y,z forces =   -7.2431E+03    6.2254E+03    0.0000E+00  setid=       0
 node=  5927 local x,y,z forces =   -5.2498E+03    1.3248E+04    0.0000E+00  setid=       0
 node=  5936 local x,y,z forces =   -1.7684E+03    2.2389E+04    0.0000E+00  setid=       0
 node=  5945 local x,y,z forces =    2.0868E+03    3.4023E+04    0.0000E+00  setid=       0
 node=  5954 local x,y,z forces =    6.1263E+03    5.9889E+04    0.0000E+00  setid=       0
 node=  5963 local x,y,z forces =    8.6293E+03    9.6001E+04    0.0000E+00  setid=       0
             force resultants   =   -4.1810E+03    2.1682E-08   -6.2335E+06
 output at time =   1.45000E-02
 node=     5 local x,y,z forces =    8.8594E+03   -9.6007E+04   -2.6878E+05  setid=       0
 node=    14 local x,y,z forces =    6.3785E+03   -5.9862E+04   -5.2221E+05  setid=       0
 node=    23 local x,y,z forces =    2.2632E+03   -3.4008E+04   -5.1789E+05  setid=       0
 node=    32 local x,y,z forces =   -1.6641E+03   -2.2379E+04   -5.1768E+05  setid=       0
 node=    41 local x,y,z forces =   -5.2107E+03   -1.3242E+04   -5.1652E+05  setid=       0
 node=    50 local x,y,z forces =   -7.2414E+03   -6.2226E+03   -5.1607E+05  setid=       0
 node=    59 local x,y,z forces =   -8.0276E+03    8.3892E-09   -5.1576E+05  setid=       0
 node=    68 local x,y,z forces =   -7.2414E+03    6.2226E+03   -5.1607E+05  setid=       0
 node=    77 local x,y,z forces =   -5.2107E+03    1.3242E+04   -5.1652E+05  setid=       0
 node=    86 local x,y,z forces =   -1.6641E+03    2.2379E+04   -5.1768E+05  setid=       0
 node=    95 local x,y,z forces =    2.2632E+03    3.4008E+04   -5.1789E+05  setid=       0
 node=   104 local x,y,z forces =    6.3785E+03    5.9862E+04   -5.2221E+05  setid=       0
 node=   113 local x,y,z forces =    8.8594E+03    9.6007E+04   -2.6878E+05  setid=       0
 node=  5855 local x,y,z forces =    8.7994E+03   -9.5972E+04    0.0000E+00  setid=       0
 node=  5864 local x,y,z forces =    6.2585E+03   -5.9862E+04    0.0000E+00  setid=       0
 node=  5873 local x,y,z forces =    2.1432E+03   -3.4008E+04    0.0000E+00  setid=       0
 node=  5882 local x,y,z forces =   -1.7841E+03   -2.2379E+04    0.0000E+00  setid=       0
 node=  5891 local x,y,z forces =   -5.3307E+03   -1.3242E+04    0.0000E+00  setid=       0
 node=  5900 local x,y,z forces =   -7.3613E+03   -6.2226E+03    0.0000E+00  setid=       0
 node=  5909 local x,y,z forces =   -8.1475E+03    1.5039E-08    0.0000E+00  setid=       0
 node=  5918 local x,y,z forces =   -7.3613E+03    6.2226E+03    0.0000E+00  setid=       0
 node=  5927 local x,y,z forces =   -5.3307E+03    1.3242E+04    0.0000E+00  setid=       0
 node=  5936 local x,y,z forces =   -1.7841E+03    2.2379E+04    0.0000E+00  setid=       0
 node=  5945 local x,y,z forces =    2.1432E+03    3.4008E+04    0.0000E+00  setid=       0
 node=  5954 local x,y,z forces =    6.2585E+03    5.9862E+04    0.0000E+00  setid=       0
 node=  5963 local x,y,z forces =    8.7994E+03    9.5972E+04    0.0000E+00  setid=       0
             force resultants   =   -3.9554E+03   -1.0937E-07   -6.2341E+06
 output at time =   1.50000E-02
 node=     5 local x,y,z forces =    9.0224E+03   -9.5974E+04   -2.6886E+05  setid=       0
 node=    14 local x,y,z forces =    6.5008E+03   -5.9836E+04   -5.2230E+05  setid=       0
 node=    23 local x,y,z forces =    2.3113E+03   -3.3993E+04   -5.1795E+05  setid=       0
 node=    32 local x,y,z forces =   -1.6868E+03   -2.2369E+04   -5.1772E+05  setid=       0
 node=    41 local x,y,z forces =   -5.2973E+03   -1.3236E+04   -5.1653E+05  setid=       0
 node=    50 local x,y,z forces =   -7.3644E+03   -6.2199E+03   -5.1607E+05  setid=       0
 node=    59 local x,y,z forces =   -8.1648E+03   -3.0268E-09   -5.1575E+05  setid=       0
 node=    68 local x,y,z forces =   -7.3644E+03    6.2199E+03   -5.1607E+05  setid=       0
 node=    77 local x,y,z forces =   -5.2973E+03    1.3236E+04   -5.1653E+05  setid=       0
 node=    86 local x,y,z forces =   -1.6868E+03    2.2369E+04   -5.1772E+05  setid=       0
 node=    95 local x,y,z forces =    2.3113E+03    3.3993E+04   -5.1795E+05  setid=       0
 node=   104 local x,y,z forces =    6.5008E+03    5.9836E+04   -5.2230E+05  setid=       0
 node=   113 local x,y,z forces =    9.0224E+03    9.5974E+04   -2.6886E+05  setid=       0
 node=  5855 local x,y,z forces =    8.9655E+03   -9.5942E+04    0.0000E+00  setid=       0
 node=  5864 local x,y,z forces =    6.3871E+03   -5.9836E+04    0.0000E+00  setid=       0
 node=  5873 local x,y,z forces =    2.1977E+03   -3.3993E+04    0.0000E+00  setid=       0
 node=  5882 local x,y,z forces =   -1.8004E+03   -2.2369E+04    0.0000E+00  setid=       0
 node=  5891 local x,y,z forces =   -5.4109E+03   -1.3236E+04    0.0000E+00  setid=       0
 node=  5900 local x,y,z forces =   -7.4780E+03   -6.2199E+03    0.0000E+00  setid=       0
 node=  5909 local x,y,z forces =   -8.2784E+03   -1.0703E-08    0.0000E+00  setid=       0
 node=  5918 local x,y,z forces =   -7.4780E+03    6.2199E+03    0.0000E+00  setid=       0
 node=  5927 local x,y,z forces =   -5.4109E+03    1.3236E+04    0.0000E+00  setid=       0
 node=  5936 local x,y,z forces =   -1.8004E+03    2.2369E+04    0.0000E+00  setid=       0
 node=  5945 local x,y,z forces =    2.1977E+03    3.3993E+04    0.0000E+00  setid=       0
 node=  5954 local x,y,z forces =    6.3871E+03    5.9836E+04    0.0000E+00  setid=       0
 node=  5963 local x,y,z forces =    8.9655E+03    9.5942E+04    0.0000E+00  setid=       0
             force resultants   =   -3.7493E+03    9.4878E-09   -6.2346E+06
 output at time =   1.55000E-02
 node=     5 local x,y,z forces =    9.1820E+03   -9.5942E+04   -2.6894E+05  setid=       0
 node=    14 local x,y,z forces =    6.6203E+03   -5.9811E+04   -5.2239E+05  setid=       0
 node=    23 local x,y,z forces =    2.3581E+03   -3.3978E+04   -5.1801E+05  setid=       0
 node=    32 local x,y,z forces =   -1.7094E+03   -2.2360E+04   -5.1776E+05  setid=       0
 node=    41 local x,y,z forces =   -5.3825E+03   -1.3231E+04   -5.1655E+05  setid=       0
 node=    50 local x,y,z forces =   -7.4855E+03   -6.2172E+03   -5.1608E+05  setid=       0
 node=    59 local x,y,z forces =   -8.2997E+03    9.7643E-09   -5.1575E+05  setid=       0
 node=    68 local x,y,z forces =   -7.4855E+03    6.2172E+03   -5.1608E+05  setid=       0
 node=    77 local x,y,z forces =   -5.3825E+03    1.3231E+04   -5.1655E+05  setid=       0
 node=    86 local x,y,z forces =   -1.7094E+03    2.2360E+04   -5.1776E+05  setid=       0
 node=    95 local x,y,z forces =    2.3581E+03    3.3978E+04   -5.1801E+05  setid=       0
[...]
 node=    32 local x,y,z forces =   -2.7941E+03   -2.1803E+04   -5.2103E+05  setid=       0
 node=    41 local x,y,z forces =   -9.1113E+03   -1.2900E+04   -5.1848E+05  setid=       0
 node=    50 local x,y,z forces =   -1.2728E+04   -6.0617E+03   -5.1725E+05  setid=       0
 node=    59 local x,y,z forces =   -1.4128E+04    1.3461E-09   -5.1663E+05  setid=       0
 node=    68 local x,y,z forces =   -1.2728E+04    6.0617E+03   -5.1725E+05  setid=       0
 node=    77 local x,y,z forces =   -9.1113E+03    1.2900E+04   -5.1848E+05  setid=       0
 node=    86 local x,y,z forces =   -2.7941E+03    2.1803E+04   -5.2103E+05  setid=       0
 node=    95 local x,y,z forces =    4.2007E+03    3.3130E+04   -5.2275E+05  setid=       0
 node=   104 local x,y,z forces =    1.1531E+04    5.8339E+04   -5.2871E+05  setid=       0
 node=   113 local x,y,z forces =    1.5859E+04    9.3695E+04   -2.7428E+05  setid=       0
 node=  5855 local x,y,z forces =    1.5850E+04   -9.3692E+04    0.0000E+00  setid=       0
 node=  5864 local x,y,z forces =    1.1513E+04   -5.8339E+04    0.0000E+00  setid=       0
 node=  5873 local x,y,z forces =    4.1823E+03   -3.3130E+04    0.0000E+00  setid=       0
 node=  5882 local x,y,z forces =   -2.8125E+03   -2.1803E+04    0.0000E+00  setid=       0
 node=  5891 local x,y,z forces =   -9.1297E+03   -1.2900E+04    0.0000E+00  setid=       0
 node=  5900 local x,y,z forces =   -1.2746E+04   -6.0617E+03    0.0000E+00  setid=       0
 node=  5909 local x,y,z forces =   -1.4146E+04   -8.4401E-09    0.0000E+00  setid=       0
 node=  5918 local x,y,z forces =   -1.2746E+04    6.0617E+03    0.0000E+00  setid=       0
 node=  5927 local x,y,z forces =   -9.1297E+03    1.2900E+04    0.0000E+00  setid=       0
 node=  5936 local x,y,z forces =   -2.8125E+03    2.1803E+04    0.0000E+00  setid=       0
 node=  5945 local x,y,z forces =    4.1823E+03    3.3130E+04    0.0000E+00  setid=       0
 node=  5954 local x,y,z forces =    1.1513E+04    5.8339E+04    0.0000E+00  setid=       0
 node=  5963 local x,y,z forces =    1.5850E+04    9.3692E+04    0.0000E+00  setid=       0
             force resultants   =   -6.4361E+02    3.6816E-09   -6.2816E+06
 output at time =   4.70000E-02
 node=     5 local x,y,z forces =    1.5938E+04   -9.3657E+04   -2.7437E+05  setid=       0
 node=    14 local x,y,z forces =    1.1589E+04   -5.8315E+04   -5.2881E+05  setid=       0
 node=    23 local x,y,z forces =    4.2219E+03   -3.3116E+04   -5.2283E+05  setid=       0
 node=    32 local x,y,z forces =   -2.8075E+03   -2.1794E+04   -5.2108E+05  setid=       0
 node=    41 local x,y,z forces =   -9.1561E+03   -1.2894E+04   -5.1852E+05  setid=       0
 node=    50 local x,y,z forces =   -1.2790E+04   -6.0592E+03   -5.1727E+05  setid=       0
 node=    59 local x,y,z forces =   -1.4197E+04   -1.5207E-09   -5.1664E+05  setid=       0
 node=    68 local x,y,z forces =   -1.2790E+04    6.0592E+03   -5.1727E+05  setid=       0
 node=    77 local x,y,z forces =   -9.1561E+03    1.2894E+04   -5.1852E+05  setid=       0
 node=    86 local x,y,z forces =   -2.8075E+03    2.1794E+04   -5.2108E+05  setid=       0
 node=    95 local x,y,z forces =    4.2219E+03    3.3116E+04   -5.2283E+05  setid=       0
 node=   104 local x,y,z forces =    1.1589E+04    5.8315E+04   -5.2881E+05  setid=       0
 node=   113 local x,y,z forces =    1.5938E+04    9.3657E+04   -2.7437E+05  setid=       0
 node=  5855 local x,y,z forces =    1.5929E+04   -9.3655E+04    0.0000E+00  setid=       0
 node=  5864 local x,y,z forces =    1.1571E+04   -5.8315E+04    0.0000E+00  setid=       0
 node=  5873 local x,y,z forces =    4.2038E+03   -3.3116E+04    0.0000E+00  setid=       0
 node=  5882 local x,y,z forces =   -2.8257E+03   -2.1794E+04    0.0000E+00  setid=       0
 node=  5891 local x,y,z forces =   -9.1742E+03   -1.2894E+04    0.0000E+00  setid=       0
 node=  5900 local x,y,z forces =   -1.2808E+04   -6.0592E+03    0.0000E+00  setid=       0
 node=  5909 local x,y,z forces =   -1.4216E+04   -6.0754E-09    0.0000E+00  setid=       0
 node=  5918 local x,y,z forces =   -1.2808E+04    6.0592E+03    0.0000E+00  setid=       0
 node=  5927 local x,y,z forces =   -9.1742E+03    1.2894E+04    0.0000E+00  setid=       0
 node=  5936 local x,y,z forces =   -2.8257E+03    2.1794E+04    0.0000E+00  setid=       0
 node=  5945 local x,y,z forces =    4.2038E+03    3.3116E+04    0.0000E+00  setid=       0
 node=  5954 local x,y,z forces =    1.1571E+04    5.8315E+04    0.0000E+00  setid=       0
 node=  5963 local x,y,z forces =    1.5929E+04    9.3655E+04    0.0000E+00  setid=       0
             force resultants   =   -6.3297E+02    1.4421E-08   -6.2824E+06
 output at time =   4.75000E-02
 node=     5 local x,y,z forces =    1.6016E+04   -9.3620E+04   -2.7446E+05  setid=       0
 node=    14 local x,y,z forces =    1.1646E+04   -5.8292E+04   -5.2892E+05  setid=       0
 node=    23 local x,y,z forces =    4.2430E+03   -3.3103E+04   -5.2291E+05  setid=       0
 node=    32 local x,y,z forces =   -2.8209E+03   -2.1785E+04   -5.2114E+05  setid=       0
 node=    41 local x,y,z forces =   -9.2005E+03   -1.2889E+04   -5.1855E+05  setid=       0
 node=    50 local x,y,z forces =   -1.2853E+04   -6.0567E+03   -5.1729E+05  setid=       0
 node=    59 local x,y,z forces =   -1.4267E+04    9.7498E-10   -5.1666E+05  setid=       0
 node=    68 local x,y,z forces =   -1.2853E+04    6.0567E+03   -5.1729E+05  setid=       0
 node=    77 local x,y,z forces =   -9.2005E+03    1.2889E+04   -5.1855E+05  setid=       0
 node=    86 local x,y,z forces =   -2.8209E+03    2.1785E+04   -5.2114E+05  setid=       0
 node=    95 local x,y,z forces =    4.2430E+03    3.3103E+04   -5.2291E+05  setid=       0
 node=   104 local x,y,z forces =    1.1646E+04    5.8292E+04   -5.2892E+05  setid=       0
 node=   113 local x,y,z forces =    1.6016E+04    9.3620E+04   -2.7446E+05  setid=       0
 node=  5855 local x,y,z forces =    1.6007E+04   -9.3617E+04    0.0000E+00  setid=       0
 node=  5864 local x,y,z forces =    1.1628E+04   -5.8292E+04    0.0000E+00  setid=       0
 node=  5873 local x,y,z forces =    4.2252E+03   -3.3103E+04    0.0000E+00  setid=       0
 node=  5882 local x,y,z forces =   -2.8387E+03   -2.1785E+04    0.0000E+00  setid=       0
 node=  5891 local x,y,z forces =   -9.2184E+03   -1.2889E+04    0.0000E+00  setid=       0
 node=  5900 local x,y,z forces =   -1.2870E+04   -6.0567E+03    0.0000E+00  setid=       0
 node=  5909 local x,y,z forces =   -1.4284E+04   -4.5402E-09    0.0000E+00  setid=       0
 node=  5918 local x,y,z forces =   -1.2870E+04    6.0567E+03    0.0000E+00  setid=       0
 node=  5927 local x,y,z forces =   -9.2184E+03    1.2889E+04    0.0000E+00  setid=       0
 node=  5936 local x,y,z forces =   -2.8387E+03    2.1785E+04    0.0000E+00  setid=       0
 node=  5945 local x,y,z forces =    4.2252E+03    3.3103E+04    0.0000E+00  setid=       0
 node=  5954 local x,y,z forces =    1.1628E+04    5.8292E+04    0.0000E+00  setid=       0
 node=  5963 local x,y,z forces =    1.6007E+04    9.3617E+04    0.0000E+00  setid=       0
             force resultants   =   -6.2261E+02   -1.6007E-08   -6.2832E+06
 output at time =   4.80000E-02
 node=     5 local x,y,z forces =    1.6094E+04   -9.3583E+04   -2.7455E+05  setid=       0
 node=    14 local x,y,z forces =    1.1703E+04   -5.8269E+04   -5.2902E+05  setid=       0
 node=    23 local x,y,z forces =    4.2639E+03   -3.3089E+04   -5.2299E+05  setid=       0
 node=    32 local x,y,z forces =   -2.8342E+03   -2.1777E+04   -5.2120E+05  setid=       0
 node=    41 local x,y,z forces =   -9.2447E+03   -1.2884E+04   -5.1859E+05  setid=       0
 node=    50 local x,y,z forces =   -1.2914E+04   -6.0542E+03   -5.1731E+05  setid=       0
 node=    59 local x,y,z forces =   -1.4335E+04    1.6589E-09   -5.1668E+05  setid=       0
 node=    68 local x,y,z forces =   -1.2914E+04    6.0542E+03   -5.1731E+05  setid=       0
 node=    77 local x,y,z forces =   -9.2447E+03    1.2884E+04   -5.1859E+05  setid=       0
 node=    86 local x,y,z forces =   -2.8342E+03    2.1777E+04   -5.2120E+05  setid=       0
 node=    95 local x,y,z forces =    4.2639E+03    3.3089E+04   -5.2299E+05  setid=       0
 node=   104 local x,y,z forces =    1.1703E+04    5.8269E+04   -5.2902E+05  setid=       0
 node=   113 local x,y,z forces =    1.6094E+04    9.3583E+04   -2.7455E+05  setid=       0
 node=  5855 local x,y,z forces =    1.6085E+04   -9.3580E+04    0.0000E+00  setid=       0
 node=  5864 local x,y,z forces =    1.1685E+04   -5.8269E+04    0.0000E+00  setid=       0
 node=  5873 local x,y,z forces =    4.2463E+03   -3.3089E+04    0.0000E+00  setid=       0
 node=  5882 local x,y,z forces =   -2.8517E+03   -2.1777E+04    0.0000E+00  setid=       0
 node=  5891 local x,y,z forces =   -9.2622E+03   -1.2884E+04    0.0000E+00  setid=       0
 node=  5900 local x,y,z forces =   -1.2932E+04   -6.0542E+03    0.0000E+00  setid=       0
 node=  5909 local x,y,z forces =   -1.4353E+04   -4.3074E-09    0.0000E+00  setid=       0
 node=  5918 local x,y,z forces =   -1.2932E+04    6.0542E+03    0.0000E+00  setid=       0
 node=  5927 local x,y,z forces =   -9.2622E+03    1.2884E+04    0.0000E+00  setid=       0
 node=  5936 local x,y,z forces =   -2.8517E+03    2.1777E+04    0.0000E+00  setid=       0
 node=  5945 local x,y,z forces =    4.2463E+03    3.3089E+04    0.0000E+00  setid=       0
 node=  5954 local x,y,z forces =    1.1685E+04    5.8269E+04    0.0000E+00  setid=       0
 node=  5963 local x,y,z forces =    1.6085E+04    9.3580E+04    0.0000E+00  setid=       0
             force resultants   =   -6.1251E+02   -1.7186E-08   -6.2840E+06
 output at time =   4.85000E-02
 node=     5 local x,y,z forces =    1.6171E+04   -9.3546E+04   -2.7463E+05  setid=       0
 node=    14 local x,y,z forces =    1.1759E+04   -5.8245E+04   -5.2913E+05  setid=       0
 node=    23 local x,y,z forces =    4.2846E+03   -3.3076E+04   -5.2307E+05  setid=       0
 node=    32 local x,y,z forces =   -2.8474E+03   -2.1768E+04   -5.2125E+05  setid=       0
 node=    41 local x,y,z forces =   -9.2886E+03   -1.2879E+04   -5.1862E+05  setid=       0
 node=    50 local x,y,z forces =   -1.2976E+04   -6.0518E+03   -5.1734E+05  setid=       0
 node=    59 local x,y,z forces =   -1.4404E+04   -2.9759E-09   -5.1670E+05  setid=       0
 node=    68 local x,y,z forces =   -1.2976E+04    6.0518E+03   -5.1734E+05  setid=       0
 node=    77 local x,y,z forces =   -9.2886E+03    1.2879E+04   -5.1862E+05  setid=       0
 node=    86 local x,y,z forces =   -2.8474E+03    2.1768E+04   -5.2125E+05  setid=       0
 node=    95 local x,y,z forces =    4.2846E+03    3.3076E+04   -5.2307E+05  setid=       0
 node=   104 local x,y,z forces =    1.1759E+04    5.8245E+04   -5.2913E+05  setid=       0
 node=   113 local x,y,z forces =    1.6171E+04    9.3546E+04   -2.7463E+05  setid=       0
 node=  5855 local x,y,z forces =    1.6162E+04   -9.3543E+04    0.0000E+00  setid=       0
 node=  5864 local x,y,z forces =    1.1742E+04   -5.8245E+04    0.0000E+00  setid=       0
 node=  5873 local x,y,z forces =    4.2674E+03   -3.3076E+04    0.0000E+00  setid=       0
 node=  5882 local x,y,z forces =   -2.8646E+03   -2.1768E+04    0.0000E+00  setid=       0
 node=  5891 local x,y,z forces =   -9.3058E+03   -1.2879E+04    0.0000E+00  setid=       0
 node=  5900 local x,y,z forces =   -1.2993E+04   -6.0518E+03    0.0000E+00  setid=       0
 node=  5909 local x,y,z forces =   -1.4421E+04   -1.0048E-08    0.0000E+00  setid=       0
 node=  5918 local x,y,z forces =   -1.2993E+04    6.0518E+03    0.0000E+00  setid=       0
 node=  5927 local x,y,z forces =   -9.3058E+03    1.2879E+04    0.0000E+00  setid=       0
 node=  5936 local x,y,z forces =   -2.8646E+03    2.1768E+04    0.0000E+00  setid=       0
 node=  5945 local x,y,z forces =    4.2674E+03    3.3076E+04    0.0000E+00  setid=       0
 node=  5954 local x,y,z forces =    1.1742E+04    5.8245E+04    0.0000E+00  setid=       0
 node=  5963 local x,y,z forces =    1.6162E+04    9.3543E+04    0.0000E+00  setid=       0
             force resultants   =   -6.0268E+02    1.9194E-08   -6.2848E+06
 output at time =   4.90000E-02
 node=     5 local x,y,z forces =    1.6247E+04   -9.3509E+04   -2.7472E+05  setid=       0
 node=    14 local x,y,z forces =    1.1815E+04   -5.8222E+04   -5.2923E+05  setid=       0
 node=    23 local x,y,z forces =    4.3052E+03   -3.3062E+04   -5.2315E+05  setid=       0
 node=    32 local x,y,z forces =   -2.8605E+03   -2.1759E+04   -5.2131E+05  setid=       0
 node=    41 local x,y,z forces =   -9.3321E+03   -1.2873E+04   -5.1866E+05  setid=       0
 node=    50 local x,y,z forces =   -1.3037E+04   -6.0493E+03   -5.1736E+05  setid=       0
 node=    59 local x,y,z forces =   -1.4471E+04   -3.3178E-09   -5.1672E+05  setid=       0
 node=    68 local x,y,z forces =   -1.3037E+04    6.0493E+03   -5.1736E+05  setid=       0
 node=    77 local x,y,z forces =   -9.3321E+03    1.2873E+04   -5.1866E+05  setid=       0
 node=    86 local x,y,z forces =   -2.8605E+03    2.1759E+04   -5.2131E+05  setid=       0
 node=    95 local x,y,z forces =    4.3052E+03    3.3062E+04   -5.2315E+05  setid=       0
 node=   104 local x,y,z forces =    1.1815E+04    5.8222E+04   -5.2923E+05  setid=       0
 node=   113 local x,y,z forces =    1.6247E+04    9.3509E+04   -2.7472E+05  setid=       0
 node=  5855 local x,y,z forces =    1.6239E+04   -9.3506E+04    0.0000E+00  setid=       0
 node=  5864 local x,y,z forces =    1.1798E+04   -5.8222E+04    0.0000E+00  setid=       0
 node=  5873 local x,y,z forces =    4.2882E+03   -3.3062E+04    0.0000E+00  setid=       0
 node=  5882 local x,y,z forces =   -2.8774E+03   -2.1759E+04    0.0000E+00  setid=       0
 node=  5891 local x,y,z forces =   -9.3491E+03   -1.2873E+04    0.0000E+00  setid=       0
 node=  5900 local x,y,z forces =   -1.3054E+04   -6.0493E+03    0.0000E+00  setid=       0
 node=  5909 local x,y,z forces =   -1.4488E+04   -9.3569E-09    0.0000E+00  setid=       0
 node=  5918 local x,y,z forces =   -1.3054E+04    6.0493E+03    0.0000E+00  setid=       0
 node=  5927 local x,y,z forces =   -9.3491E+03    1.2873E+04    0.0000E+00  setid=       0
 node=  5936 local x,y,z forces =   -2.8774E+03    2.1759E+04    0.0000E+00  setid=       0
 node=  5945 local x,y,z forces =    4.2882E+03    3.3062E+04    0.0000E+00  setid=       0
 node=  5954 local x,y,z forces =    1.1798E+04    5.8222E+04    0.0000E+00  setid=       0
 node=  5963 local x,y,z forces =    1.6239E+04    9.3506E+04    0.0000E+00  setid=       0
             force resultants   =   -5.9311E+02    2.7227E-08   -6.2856E+06
 output at time =   4.95000E-02
 node=     5 local x,y,z forces =    1.6323E+04   -9.3471E+04   -2.7481E+05  setid=       0
 node=    14 local x,y,z forces =    1.1870E+04   -5.8198E+04   -5.2934E+05  setid=       0
 node=    23 local x,y,z forces =    4.3256E+03   -3.3049E+04   -5.2323E+05  setid=       0
 node=    32 local x,y,z forces =   -2.8735E+03   -2.1750E+04   -5.2136E+05  setid=       0
 node=    41 local x,y,z forces =   -9.3754E+03   -1.2868E+04   -5.1869E+05  setid=       0
 node=    50 local x,y,z forces =   -1.3097E+04   -6.0468E+03   -5.1738E+05  setid=       0
 node=    59 local x,y,z forces =   -1.4538E+04   -2.8376E-10   -5.1673E+05  setid=       0
 node=    68 local x,y,z forces =   -1.3097E+04    6.0468E+03   -5.1738E+05  setid=       0
 node=    77 local x,y,z forces =   -9.3754E+03    1.2868E+04   -5.1869E+05  setid=       0
 node=    86 local x,y,z forces =   -2.8735E+03    2.1750E+04   -5.2136E+05  setid=       0
 node=    95 local x,y,z forces =    4.3256E+03    3.3049E+04   -5.2323E+05  setid=       0
 node=   104 local x,y,z forces =    1.1870E+04    5.8198E+04   -5.2934E+05  setid=       0
 node=   113 local x,y,z forces =    1.6323E+04    9.3471E+04   -2.7481E+05  setid=       0
 node=  5855 local x,y,z forces =    1.6315E+04   -9.3469E+04    0.0000E+00  setid=       0
 node=  5864 local x,y,z forces =    1.1854E+04   -5.8198E+04    0.0000E+00  setid=       0
 node=  5873 local x,y,z forces =    4.3090E+03   -3.3049E+04    0.0000E+00  setid=       0
 node=  5882 local x,y,z forces =   -2.8902E+03   -2.1750E+04    0.0000E+00  setid=       0
 node=  5891 local x,y,z forces =   -9.3920E+03   -1.2868E+04    0.0000E+00  setid=       0
 node=  5900 local x,y,z forces =   -1.3114E+04   -6.0468E+03    0.0000E+00  setid=       0
 node=  5909 local x,y,z forces =   -1.4555E+04   -3.0996E-09    0.0000E+00  setid=       0
 node=  5918 local x,y,z forces =   -1.3114E+04    6.0468E+03    0.0000E+00  setid=       0
 node=  5927 local x,y,z forces =   -9.3920E+03    1.2868E+04    0.0000E+00  setid=       0
 node=  5936 local x,y,z forces =   -2.8902E+03    2.1750E+04    0.0000E+00  setid=       0
 node=  5945 local x,y,z forces =    4.3090E+03    3.3049E+04    0.0000E+00  setid=       0
 node=  5954 local x,y,z forces =    1.1854E+04    5.8198E+04    0.0000E+00  setid=       0
 node=  5963 local x,y,z forces =    1.6315E+04    9.3469E+04    0.0000E+00  setid=       0
             force resultants   =   -5.8377E+02   -4.5402E-09   -6.2864E+06
 output at time =   5.00000E-02
 node=     5 local x,y,z forces =    1.6399E+04   -9.3434E+04   -2.7489E+05  setid=       0
 node=    14 local x,y,z forces =    1.1925E+04   -5.8175E+04   -5.2944E+05  setid=       0
 node=    23 local x,y,z forces =    4.3459E+03   -3.3035E+04   -5.2331E+05  setid=       0
 node=    32 local x,y,z forces =   -2.8864E+03   -2.1741E+04   -5.2142E+05  setid=       0
 node=    41 local x,y,z forces =   -9.4183E+03   -1.2863E+04   -5.1873E+05  setid=       0
 node=    50 local x,y,z forces =   -1.3157E+04   -6.0443E+03   -5.1741E+05  setid=       0
 node=    59 local x,y,z forces =   -1.4605E+04    5.6025E-10   -5.1675E+05  setid=       0
 node=    68 local x,y,z forces =   -1.3157E+04    6.0443E+03   -5.1741E+05  setid=       0
 node=    77 local x,y,z forces =   -9.4183E+03    1.2863E+04   -5.1873E+05  setid=       0
 node=    86 local x,y,z forces =   -2.8864E+03    2.1741E+04   -5.2142E+05  setid=       0
 node=    95 local x,y,z forces =    4.3459E+03    3.3035E+04   -5.2331E+05  setid=       0
 node=   104 local x,y,z forces =    1.1925E+04    5.8175E+04   -5.2944E+05  setid=       0
 node=   113 local x,y,z forces =    1.6399E+04    9.3434E+04   -2.7489E+05  setid=       0
 node=  5855 local x,y,z forces =    1.6391E+04   -9.3432E+04    0.0000E+00  setid=       0
 node=  5864 local x,y,z forces =    1.1909E+04   -5.8175E+04    0.0000E+00  setid=       0
 node=  5873 local x,y,z forces =    4.3295E+03   -3.3035E+04    0.0000E+00  setid=       0
 node=  5882 local x,y,z forces =   -2.9028E+03   -2.1741E+04    0.0000E+00  setid=       0
 node=  5891 local x,y,z forces =   -9.4347E+03   -1.2863E+04    0.0000E+00  setid=       0
 node=  5900 local x,y,z forces =   -1.3174E+04   -6.0443E+03    0.0000E+00  setid=       0
 node=  5909 local x,y,z forces =   -1.4622E+04   -6.5775E-09    0.0000E+00  setid=       0
 node=  5918 local x,y,z forces =   -1.3174E+04    6.0443E+03    0.0000E+00  setid=       0
 node=  5927 local x,y,z forces =   -9.4347E+03    1.2863E+04    0.0000E+00  setid=       0
 node=  5936 local x,y,z forces =   -2.9028E+03    2.1741E+04    0.0000E+00  setid=       0
 node=  5945 local x,y,z forces =    4.3295E+03    3.3035E+04    0.0000E+00  setid=       0
 node=  5954 local x,y,z forces =    1.1909E+04    5.8175E+04    0.0000E+00  setid=       0
 node=  5963 local x,y,z forces =    1.6391E+04    9.3432E+04    0.0000E+00  setid=       0
             force resultants   =   -5.7467E+02   -9.0804E-09   -6.2872E+06
